data_POSCAR_Cu111_twin_singleplane_d14_d210_d35_ortho
_symmetry_space_group_name_H-M   'P 1'
_symmetry_Int_Tables_number      1
loop_
  _symmetry_equiv_pos_as_xyz
  'x, y, z'
_cell_length_a    46.08238885
_cell_length_b    33.81522863
_cell_length_c    35.48106079
_cell_angle_alpha 90.00000000
_cell_angle_beta  90.00000000
_cell_angle_gamma 65.20871910
loop_
  _atom_site_label
  _atom_site_type_symbol
  _atom_site_fract_x
  _atom_site_fract_y
  _atom_site_fract_z
  Cu1 Cu 0.70000000 0.10000000 0.00000000
  Cu2 Cu 0.90000000 0.70000000 0.00000000
  Cu3 Cu 0.50000000 0.50000000 0.00000000
  Cu4 Cu 0.10000000 0.30000000 0.00000000
  Cu5 Cu 0.30000000 0.90000000 0.00000000
  Cu6 Cu 0.72000000 0.16000000 0.00000000
  Cu7 Cu 0.92000000 0.76000000 0.00000000
  Cu8 Cu 0.52000000 0.56000000 0.00000000
  Cu9 Cu 0.12000000 0.36000000 0.00000000
  Cu10 Cu 0.32000000 0.96000000 0.00000000
  Cu11 Cu 0.74000000 0.22000000 0.00000000
  Cu12 Cu 0.34000000 0.02000000 0.00000000
  Cu13 Cu 0.94000000 0.82000000 0.00000000
  Cu14 Cu 0.54000000 0.62000000 0.00000000
  Cu15 Cu 0.14000000 0.42000000 0.00000000
  Cu16 Cu 0.76000000 0.28000000 0.00000000
  Cu17 Cu 0.36000000 0.08000000 0.00000000
  Cu18 Cu 0.96000000 0.88000000 0.00000000
  Cu19 Cu 0.56000000 0.68000000 0.00000000
  Cu20 Cu 0.16000000 0.48000000 0.00000000
  Cu21 Cu 0.78000000 0.34000000 0.00000000
  Cu22 Cu 0.38000000 0.14000000 0.00000000
  Cu23 Cu 0.98000000 0.94000000 0.00000000
  Cu24 Cu 0.58000000 0.74000000 0.00000000
  Cu25 Cu 0.18000000 0.54000000 0.00000000
  Cu26 Cu 0.76000000 0.08000000 0.00000000
  Cu27 Cu 0.96000000 0.68000000 0.00000000
  Cu28 Cu 0.56000000 0.48000000 0.00000000
  Cu29 Cu 0.16000000 0.28000000 0.00000000
  Cu30 Cu 0.36000000 0.88000000 0.00000000
  Cu31 Cu 0.78000000 0.14000000 0.00000000
  Cu32 Cu 0.98000000 0.74000000 0.00000000
  Cu33 Cu 0.58000000 0.54000000 0.00000000
  Cu34 Cu 0.18000000 0.34000000 0.00000000
  Cu35 Cu 0.38000000 0.94000000 0.00000000
  Cu36 Cu 0.80000000 0.20000000 0.00000000
  Cu37 Cu 0.40000000 -0.00000000 0.00000000
  Cu38 Cu 0.60000000 0.60000000 0.00000000
  Cu39 Cu 0.20000000 0.40000000 0.00000000
  Cu40 Cu 0.00000000 0.80000000 0.00000000
  Cu41 Cu 0.82000000 0.26000000 0.00000000
  Cu42 Cu 0.42000000 0.06000000 0.00000000
  Cu43 Cu 0.62000000 0.66000000 0.00000000
  Cu44 Cu 0.22000000 0.46000000 0.00000000
  Cu45 Cu 0.02000000 0.86000000 0.00000000
  Cu46 Cu 0.84000000 0.32000000 0.00000000
  Cu47 Cu 0.44000000 0.12000000 0.00000000
  Cu48 Cu 0.64000000 0.72000000 0.00000000
  Cu49 Cu 0.24000000 0.52000000 0.00000000
  Cu50 Cu 0.04000000 0.92000000 0.00000000
  Cu51 Cu 0.82000000 0.06000000 0.00000000
  Cu52 Cu 0.62000000 0.46000000 0.00000000
  Cu53 Cu 0.22000000 0.26000000 0.00000000
  Cu54 Cu 0.42000000 0.86000000 0.00000000
  Cu55 Cu 0.02000000 0.66000000 0.00000000
  Cu56 Cu 0.84000000 0.12000000 0.00000000
  Cu57 Cu 0.64000000 0.52000000 0.00000000
  Cu58 Cu 0.24000000 0.32000000 0.00000000
  Cu59 Cu 0.44000000 0.92000000 0.00000000
  Cu60 Cu 0.04000000 0.72000000 0.00000000
  Cu61 Cu 0.86000000 0.18000000 0.00000000
  Cu62 Cu 0.66000000 0.58000000 0.00000000
  Cu63 Cu 0.26000000 0.38000000 0.00000000
  Cu64 Cu 0.46000000 0.98000000 0.00000000
  Cu65 Cu 0.06000000 0.78000000 0.00000000
  Cu66 Cu 0.88000000 0.24000000 0.00000000
  Cu67 Cu 0.48000000 0.04000000 0.00000000
  Cu68 Cu 0.68000000 0.64000000 0.00000000
  Cu69 Cu 0.28000000 0.44000000 0.00000000
  Cu70 Cu 0.08000000 0.84000000 0.00000000
  Cu71 Cu 0.90000000 0.30000000 0.00000000
  Cu72 Cu 0.50000000 0.10000000 0.00000000
  Cu73 Cu 0.70000000 0.70000000 0.00000000
  Cu74 Cu 0.30000000 0.50000000 0.00000000
  Cu75 Cu 0.10000000 0.90000000 0.00000000
  Cu76 Cu 0.88000000 0.04000000 0.00000000
  Cu77 Cu 0.68000000 0.44000000 0.00000000
  Cu78 Cu 0.28000000 0.24000000 0.00000000
  Cu79 Cu 0.48000000 0.84000000 0.00000000
  Cu80 Cu 0.08000000 0.64000000 0.00000000
  Cu81 Cu 0.90000000 0.10000000 0.00000000
  Cu82 Cu 0.70000000 0.50000000 0.00000000
  Cu83 Cu 0.30000000 0.30000000 0.00000000
  Cu84 Cu 0.50000000 0.90000000 0.00000000
  Cu85 Cu 0.10000000 0.70000000 0.00000000
  Cu86 Cu 0.92000000 0.16000000 0.00000000
  Cu87 Cu 0.72000000 0.56000000 0.00000000
  Cu88 Cu 0.32000000 0.36000000 0.00000000
  Cu89 Cu 0.52000000 0.96000000 0.00000000
  Cu90 Cu 0.12000000 0.76000000 0.00000000
  Cu91 Cu 0.94000000 0.22000000 0.00000000
  Cu92 Cu 0.54000000 0.02000000 0.00000000
  Cu93 Cu 0.74000000 0.62000000 0.00000000
  Cu94 Cu 0.34000000 0.42000000 0.00000000
  Cu95 Cu 0.14000000 0.82000000 0.00000000
  Cu96 Cu 0.96000000 0.28000000 0.00000000
  Cu97 Cu 0.56000000 0.08000000 0.00000000
  Cu98 Cu 0.76000000 0.68000000 0.00000000
  Cu99 Cu 0.36000000 0.48000000 0.00000000
  Cu100 Cu 0.16000000 0.88000000 0.00000000
  Cu101 Cu 0.94000000 0.02000000 0.00000000
  Cu102 Cu 0.74000000 0.42000000 0.00000000
  Cu103 Cu 0.34000000 0.22000000 0.00000000
  Cu104 Cu 0.54000000 0.82000000 0.00000000
  Cu105 Cu 0.14000000 0.62000000 0.00000000
  Cu106 Cu 0.96000000 0.08000000 0.00000000
  Cu107 Cu 0.76000000 0.48000000 0.00000000
  Cu108 Cu 0.36000000 0.28000000 0.00000000
  Cu109 Cu 0.56000000 0.88000000 0.00000000
  Cu110 Cu 0.16000000 0.68000000 0.00000000
  Cu111 Cu 0.98000000 0.14000000 0.00000000
  Cu112 Cu 0.78000000 0.54000000 0.00000000
  Cu113 Cu 0.38000000 0.34000000 0.00000000
  Cu114 Cu 0.58000000 0.94000000 0.00000000
  Cu115 Cu 0.18000000 0.74000000 0.00000000
  Cu116 Cu 0.60000000 -0.00000000 0.00000000
  Cu117 Cu 0.80000000 0.60000000 0.00000000
  Cu118 Cu 0.40000000 0.40000000 0.00000000
  Cu119 Cu -0.00000000 0.20000000 0.00000000
  Cu120 Cu 0.20000000 0.80000000 0.00000000
  Cu121 Cu 0.62000000 0.06000000 0.00000000
  Cu122 Cu 0.82000000 0.66000000 0.00000000
  Cu123 Cu 0.42000000 0.46000000 0.00000000
  Cu124 Cu 0.02000000 0.26000000 0.00000000
  Cu125 Cu 0.22000000 0.86000000 0.00000000
  Cu126 Cu 0.72666667 0.11333333 0.05882353
  Cu127 Cu 0.92666667 0.71333333 0.05882353
  Cu128 Cu 0.52666667 0.51333333 0.05882353
  Cu129 Cu 0.12666667 0.31333333 0.05882353
  Cu130 Cu 0.32666667 0.91333333 0.05882353
  Cu131 Cu 0.74666667 0.17333333 0.05882353
  Cu132 Cu 0.94666667 0.77333333 0.05882353
  Cu133 Cu 0.54666667 0.57333333 0.05882353
  Cu134 Cu 0.14666667 0.37333333 0.05882353
  Cu135 Cu 0.34666667 0.97333333 0.05882353
  Cu136 Cu 0.76666667 0.23333333 0.05882353
  Cu137 Cu 0.36666667 0.03333333 0.05882353
  Cu138 Cu 0.96666667 0.83333333 0.05882353
  Cu139 Cu 0.56666667 0.63333333 0.05882353
  Cu140 Cu 0.16666667 0.43333333 0.05882353
  Cu141 Cu 0.78666667 0.29333333 0.05882353
  Cu142 Cu 0.38666667 0.09333333 0.05882353
  Cu143 Cu 0.98666667 0.89333333 0.05882353
  Cu144 Cu 0.58666667 0.69333333 0.05882353
  Cu145 Cu 0.18666667 0.49333333 0.05882353
  Cu146 Cu 0.80666667 0.35333333 0.05882353
  Cu147 Cu 0.40666667 0.15333333 0.05882353
  Cu148 Cu 0.60666667 0.75333333 0.05882353
  Cu149 Cu 0.20666667 0.55333333 0.05882353
  Cu150 Cu 0.00666667 0.95333333 0.05882353
  Cu151 Cu 0.78666667 0.09333333 0.05882353
  Cu152 Cu 0.98666667 0.69333333 0.05882353
  Cu153 Cu 0.58666667 0.49333333 0.05882353
  Cu154 Cu 0.18666667 0.29333333 0.05882353
  Cu155 Cu 0.38666667 0.89333333 0.05882353
  Cu156 Cu 0.80666667 0.15333333 0.05882353
  Cu157 Cu 0.60666667 0.55333333 0.05882353
  Cu158 Cu 0.20666667 0.35333333 0.05882353
  Cu159 Cu 0.40666667 0.95333333 0.05882353
  Cu160 Cu 0.00666667 0.75333333 0.05882353
  Cu161 Cu 0.82666667 0.21333333 0.05882353
  Cu162 Cu 0.42666667 0.01333333 0.05882353
  Cu163 Cu 0.62666667 0.61333333 0.05882353
  Cu164 Cu 0.22666667 0.41333333 0.05882353
  Cu165 Cu 0.02666667 0.81333333 0.05882353
  Cu166 Cu 0.84666667 0.27333333 0.05882353
  Cu167 Cu 0.44666667 0.07333333 0.05882353
  Cu168 Cu 0.64666667 0.67333333 0.05882353
  Cu169 Cu 0.24666667 0.47333333 0.05882353
  Cu170 Cu 0.04666667 0.87333333 0.05882353
  Cu171 Cu 0.86666667 0.33333333 0.05882353
  Cu172 Cu 0.46666667 0.13333333 0.05882353
  Cu173 Cu 0.66666667 0.73333333 0.05882353
  Cu174 Cu 0.26666667 0.53333333 0.05882353
  Cu175 Cu 0.06666667 0.93333333 0.05882353
  Cu176 Cu 0.84666667 0.07333333 0.05882353
  Cu177 Cu 0.64666667 0.47333333 0.05882353
  Cu178 Cu 0.24666667 0.27333333 0.05882353
  Cu179 Cu 0.44666667 0.87333333 0.05882353
  Cu180 Cu 0.04666667 0.67333333 0.05882353
  Cu181 Cu 0.86666667 0.13333333 0.05882353
  Cu182 Cu 0.66666667 0.53333333 0.05882353
  Cu183 Cu 0.26666667 0.33333333 0.05882353
  Cu184 Cu 0.46666667 0.93333333 0.05882353
  Cu185 Cu 0.06666667 0.73333333 0.05882353
  Cu186 Cu 0.88666667 0.19333333 0.05882353
  Cu187 Cu 0.68666667 0.59333333 0.05882353
  Cu188 Cu 0.28666667 0.39333333 0.05882353
  Cu189 Cu 0.48666667 0.99333333 0.05882353
  Cu190 Cu 0.08666667 0.79333333 0.05882353
  Cu191 Cu 0.90666667 0.25333333 0.05882353
  Cu192 Cu 0.50666667 0.05333333 0.05882353
  Cu193 Cu 0.70666667 0.65333333 0.05882353
  Cu194 Cu 0.30666667 0.45333333 0.05882353
  Cu195 Cu 0.10666667 0.85333333 0.05882353
  Cu196 Cu 0.92666667 0.31333333 0.05882353
  Cu197 Cu 0.52666667 0.11333333 0.05882353
  Cu198 Cu 0.72666667 0.71333333 0.05882353
  Cu199 Cu 0.32666667 0.51333333 0.05882353
  Cu200 Cu 0.12666667 0.91333333 0.05882353
  Cu201 Cu 0.90666667 0.05333333 0.05882353
  Cu202 Cu 0.70666667 0.45333333 0.05882353
  Cu203 Cu 0.30666667 0.25333333 0.05882353
  Cu204 Cu 0.50666667 0.85333333 0.05882353
  Cu205 Cu 0.10666667 0.65333333 0.05882353
  Cu206 Cu 0.92666667 0.11333333 0.05882353
  Cu207 Cu 0.72666667 0.51333333 0.05882353
  Cu208 Cu 0.32666667 0.31333333 0.05882353
  Cu209 Cu 0.52666667 0.91333333 0.05882353
  Cu210 Cu 0.12666667 0.71333333 0.05882353
  Cu211 Cu 0.94666667 0.17333333 0.05882353
  Cu212 Cu 0.74666667 0.57333333 0.05882353
  Cu213 Cu 0.34666667 0.37333333 0.05882353
  Cu214 Cu 0.54666667 0.97333333 0.05882353
  Cu215 Cu 0.14666667 0.77333333 0.05882353
  Cu216 Cu 0.96666667 0.23333333 0.05882353
  Cu217 Cu 0.56666667 0.03333333 0.05882353
  Cu218 Cu 0.76666667 0.63333333 0.05882353
  Cu219 Cu 0.36666667 0.43333333 0.05882353
  Cu220 Cu 0.16666667 0.83333333 0.05882353
  Cu221 Cu 0.98666667 0.29333333 0.05882353
  Cu222 Cu 0.58666667 0.09333333 0.05882353
  Cu223 Cu 0.78666667 0.69333333 0.05882353
  Cu224 Cu 0.38666667 0.49333333 0.05882353
  Cu225 Cu 0.18666667 0.89333333 0.05882353
  Cu226 Cu 0.96666667 0.03333333 0.05882353
  Cu227 Cu 0.76666667 0.43333333 0.05882353
  Cu228 Cu 0.36666667 0.23333333 0.05882353
  Cu229 Cu 0.56666667 0.83333333 0.05882353
  Cu230 Cu 0.16666667 0.63333333 0.05882353
  Cu231 Cu 0.98666667 0.09333333 0.05882353
  Cu232 Cu 0.78666667 0.49333333 0.05882353
  Cu233 Cu 0.38666667 0.29333333 0.05882353
  Cu234 Cu 0.58666667 0.89333333 0.05882353
  Cu235 Cu 0.18666667 0.69333333 0.05882353
  Cu236 Cu 0.80666667 0.55333333 0.05882353
  Cu237 Cu 0.40666667 0.35333333 0.05882353
  Cu238 Cu 0.00666667 0.15333333 0.05882353
  Cu239 Cu 0.60666667 0.95333333 0.05882353
  Cu240 Cu 0.20666667 0.75333333 0.05882353
  Cu241 Cu 0.62666667 0.01333333 0.05882353
  Cu242 Cu 0.82666667 0.61333333 0.05882353
  Cu243 Cu 0.42666667 0.41333333 0.05882353
  Cu244 Cu 0.02666667 0.21333333 0.05882353
  Cu245 Cu 0.22666667 0.81333333 0.05882353
  Cu246 Cu 0.64666667 0.07333333 0.05882353
  Cu247 Cu 0.84666667 0.67333333 0.05882353
  Cu248 Cu 0.44666667 0.47333333 0.05882353
  Cu249 Cu 0.04666667 0.27333333 0.05882353
  Cu250 Cu 0.24666667 0.87333333 0.05882353
  Cu251 Cu 0.75333333 0.12666667 0.11764706
  Cu252 Cu 0.95333333 0.72666667 0.11764706
  Cu253 Cu 0.55333333 0.52666667 0.11764706
  Cu254 Cu 0.15333333 0.32666667 0.11764706
  Cu255 Cu 0.35333333 0.92666667 0.11764706
  Cu256 Cu 0.77333333 0.18666667 0.11764706
  Cu257 Cu 0.97333333 0.78666667 0.11764706
  Cu258 Cu 0.57333333 0.58666667 0.11764706
  Cu259 Cu 0.17333333 0.38666667 0.11764706
  Cu260 Cu 0.37333333 0.98666667 0.11764706
  Cu261 Cu 0.79333333 0.24666667 0.11764706
  Cu262 Cu 0.39333333 0.04666667 0.11764706
  Cu263 Cu 0.99333333 0.84666667 0.11764706
  Cu264 Cu 0.59333333 0.64666667 0.11764706
  Cu265 Cu 0.19333333 0.44666667 0.11764706
  Cu266 Cu 0.81333333 0.30666667 0.11764706
  Cu267 Cu 0.41333333 0.10666667 0.11764706
  Cu268 Cu 0.61333333 0.70666667 0.11764706
  Cu269 Cu 0.21333333 0.50666667 0.11764706
  Cu270 Cu 0.01333333 0.90666667 0.11764706
  Cu271 Cu 0.83333333 0.36666667 0.11764706
  Cu272 Cu 0.43333333 0.16666667 0.11764706
  Cu273 Cu 0.63333333 0.76666667 0.11764706
  Cu274 Cu 0.23333333 0.56666667 0.11764706
  Cu275 Cu 0.03333333 0.96666667 0.11764706
  Cu276 Cu 0.81333333 0.10666667 0.11764706
  Cu277 Cu 0.61333333 0.50666667 0.11764706
  Cu278 Cu 0.21333333 0.30666667 0.11764706
  Cu279 Cu 0.41333333 0.90666667 0.11764706
  Cu280 Cu 0.01333333 0.70666667 0.11764706
  Cu281 Cu 0.83333333 0.16666667 0.11764706
  Cu282 Cu 0.63333333 0.56666667 0.11764706
  Cu283 Cu 0.23333333 0.36666667 0.11764706
  Cu284 Cu 0.43333333 0.96666667 0.11764706
  Cu285 Cu 0.03333333 0.76666667 0.11764706
  Cu286 Cu 0.85333333 0.22666667 0.11764706
  Cu287 Cu 0.45333333 0.02666667 0.11764706
  Cu288 Cu 0.65333333 0.62666667 0.11764706
  Cu289 Cu 0.25333333 0.42666667 0.11764706
  Cu290 Cu 0.05333333 0.82666667 0.11764706
  Cu291 Cu 0.87333333 0.28666667 0.11764706
  Cu292 Cu 0.47333333 0.08666667 0.11764706
  Cu293 Cu 0.67333333 0.68666667 0.11764706
  Cu294 Cu 0.27333333 0.48666667 0.11764706
  Cu295 Cu 0.07333333 0.88666667 0.11764706
  Cu296 Cu 0.89333333 0.34666667 0.11764706
  Cu297 Cu 0.49333333 0.14666667 0.11764706
  Cu298 Cu 0.69333333 0.74666667 0.11764706
  Cu299 Cu 0.29333333 0.54666667 0.11764706
  Cu300 Cu 0.09333333 0.94666667 0.11764706
  Cu301 Cu 0.87333333 0.08666667 0.11764706
  Cu302 Cu 0.67333333 0.48666667 0.11764706
  Cu303 Cu 0.27333333 0.28666667 0.11764706
  Cu304 Cu 0.47333333 0.88666667 0.11764706
  Cu305 Cu 0.07333333 0.68666667 0.11764706
  Cu306 Cu 0.89333333 0.14666667 0.11764706
  Cu307 Cu 0.69333333 0.54666667 0.11764706
  Cu308 Cu 0.29333333 0.34666667 0.11764706
  Cu309 Cu 0.49333333 0.94666667 0.11764706
  Cu310 Cu 0.09333333 0.74666667 0.11764706
  Cu311 Cu 0.91333333 0.20666667 0.11764706
  Cu312 Cu 0.51333333 0.00666667 0.11764706
  Cu313 Cu 0.71333333 0.60666667 0.11764706
  Cu314 Cu 0.31333333 0.40666667 0.11764706
  Cu315 Cu 0.11333333 0.80666667 0.11764706
  Cu316 Cu 0.93333333 0.26666667 0.11764706
  Cu317 Cu 0.53333333 0.06666667 0.11764706
  Cu318 Cu 0.73333333 0.66666667 0.11764706
  Cu319 Cu 0.33333333 0.46666667 0.11764706
  Cu320 Cu 0.13333333 0.86666667 0.11764706
  Cu321 Cu 0.95333333 0.32666667 0.11764706
  Cu322 Cu 0.55333333 0.12666667 0.11764706
  Cu323 Cu 0.75333333 0.72666667 0.11764706
  Cu324 Cu 0.35333333 0.52666667 0.11764706
  Cu325 Cu 0.15333333 0.92666667 0.11764706
  Cu326 Cu 0.93333333 0.06666667 0.11764706
  Cu327 Cu 0.73333333 0.46666667 0.11764706
  Cu328 Cu 0.33333333 0.26666667 0.11764706
  Cu329 Cu 0.53333333 0.86666667 0.11764706
  Cu330 Cu 0.13333333 0.66666667 0.11764706
  Cu331 Cu 0.95333333 0.12666667 0.11764706
  Cu332 Cu 0.75333333 0.52666667 0.11764706
  Cu333 Cu 0.35333333 0.32666667 0.11764706
  Cu334 Cu 0.55333333 0.92666667 0.11764706
  Cu335 Cu 0.15333333 0.72666667 0.11764706
  Cu336 Cu 0.97333333 0.18666667 0.11764706
  Cu337 Cu 0.77333333 0.58666667 0.11764706
  Cu338 Cu 0.37333333 0.38666667 0.11764706
  Cu339 Cu 0.57333333 0.98666667 0.11764706
  Cu340 Cu 0.17333333 0.78666667 0.11764706
  Cu341 Cu 0.99333333 0.24666667 0.11764706
  Cu342 Cu 0.59333333 0.04666667 0.11764706
  Cu343 Cu 0.79333333 0.64666667 0.11764706
  Cu344 Cu 0.39333333 0.44666667 0.11764706
  Cu345 Cu 0.19333333 0.84666667 0.11764706
  Cu346 Cu 0.61333333 0.10666667 0.11764706
  Cu347 Cu 0.81333333 0.70666667 0.11764706
  Cu348 Cu 0.41333333 0.50666667 0.11764706
  Cu349 Cu 0.01333333 0.30666667 0.11764706
  Cu350 Cu 0.21333333 0.90666667 0.11764706
  Cu351 Cu 0.99333333 0.04666667 0.11764706
  Cu352 Cu 0.79333333 0.44666667 0.11764706
  Cu353 Cu 0.39333333 0.24666667 0.11764706
  Cu354 Cu 0.59333333 0.84666667 0.11764706
  Cu355 Cu 0.19333333 0.64666667 0.11764706
  Cu356 Cu 0.81333333 0.50666667 0.11764706
  Cu357 Cu 0.41333333 0.30666667 0.11764706
  Cu358 Cu 0.01333333 0.10666667 0.11764706
  Cu359 Cu 0.61333333 0.90666667 0.11764706
  Cu360 Cu 0.21333333 0.70666667 0.11764706
  Cu361 Cu 0.83333333 0.56666667 0.11764706
  Cu362 Cu 0.43333333 0.36666667 0.11764706
  Cu363 Cu 0.03333333 0.16666667 0.11764706
  Cu364 Cu 0.63333333 0.96666667 0.11764706
  Cu365 Cu 0.23333333 0.76666667 0.11764706
  Cu366 Cu 0.65333333 0.02666667 0.11764706
  Cu367 Cu 0.85333333 0.62666667 0.11764706
  Cu368 Cu 0.45333333 0.42666667 0.11764706
  Cu369 Cu 0.05333333 0.22666667 0.11764706
  Cu370 Cu 0.25333333 0.82666667 0.11764706
  Cu371 Cu 0.67333333 0.08666667 0.11764706
  Cu372 Cu 0.87333333 0.68666667 0.11764706
  Cu373 Cu 0.47333333 0.48666667 0.11764706
  Cu374 Cu 0.07333333 0.28666667 0.11764706
  Cu375 Cu 0.27333333 0.88666667 0.11764706
  Cu376 Cu 0.70000000 0.10000000 0.17647059
  Cu377 Cu 0.90000000 0.70000000 0.17647059
  Cu378 Cu 0.50000000 0.50000000 0.17647059
  Cu379 Cu 0.10000000 0.30000000 0.17647059
  Cu380 Cu 0.30000000 0.90000000 0.17647059
  Cu381 Cu 0.72000000 0.16000000 0.17647059
  Cu382 Cu 0.92000000 0.76000000 0.17647059
  Cu383 Cu 0.52000000 0.56000000 0.17647059
  Cu384 Cu 0.12000000 0.36000000 0.17647059
  Cu385 Cu 0.32000000 0.96000000 0.17647059
  Cu386 Cu 0.74000000 0.22000000 0.17647059
  Cu387 Cu 0.34000000 0.02000000 0.17647059
  Cu388 Cu 0.94000000 0.82000000 0.17647059
  Cu389 Cu 0.54000000 0.62000000 0.17647059
  Cu390 Cu 0.14000000 0.42000000 0.17647059
  Cu391 Cu 0.76000000 0.28000000 0.17647059
  Cu392 Cu 0.36000000 0.08000000 0.17647059
  Cu393 Cu 0.96000000 0.88000000 0.17647059
  Cu394 Cu 0.56000000 0.68000000 0.17647059
  Cu395 Cu 0.16000000 0.48000000 0.17647059
  Cu396 Cu 0.78000000 0.34000000 0.17647059
  Cu397 Cu 0.38000000 0.14000000 0.17647059
  Cu398 Cu 0.98000000 0.94000000 0.17647059
  Cu399 Cu 0.58000000 0.74000000 0.17647059
  Cu400 Cu 0.18000000 0.54000000 0.17647059
  Cu401 Cu 0.76000000 0.08000000 0.17647059
  Cu402 Cu 0.96000000 0.68000000 0.17647059
  Cu403 Cu 0.56000000 0.48000000 0.17647059
  Cu404 Cu 0.16000000 0.28000000 0.17647059
  Cu405 Cu 0.36000000 0.88000000 0.17647059
  Cu406 Cu 0.78000000 0.14000000 0.17647059
  Cu407 Cu 0.98000000 0.74000000 0.17647059
  Cu408 Cu 0.58000000 0.54000000 0.17647059
  Cu409 Cu 0.18000000 0.34000000 0.17647059
  Cu410 Cu 0.38000000 0.94000000 0.17647059
  Cu411 Cu 0.80000000 0.20000000 0.17647059
  Cu412 Cu 0.40000000 -0.00000000 0.17647059
  Cu413 Cu 0.60000000 0.60000000 0.17647059
  Cu414 Cu 0.20000000 0.40000000 0.17647059
  Cu415 Cu 0.00000000 0.80000000 0.17647059
  Cu416 Cu 0.82000000 0.26000000 0.17647059
  Cu417 Cu 0.42000000 0.06000000 0.17647059
  Cu418 Cu 0.62000000 0.66000000 0.17647059
  Cu419 Cu 0.22000000 0.46000000 0.17647059
  Cu420 Cu 0.02000000 0.86000000 0.17647059
  Cu421 Cu 0.84000000 0.32000000 0.17647059
  Cu422 Cu 0.44000000 0.12000000 0.17647059
  Cu423 Cu 0.64000000 0.72000000 0.17647059
  Cu424 Cu 0.24000000 0.52000000 0.17647059
  Cu425 Cu 0.04000000 0.92000000 0.17647059
  Cu426 Cu 0.82000000 0.06000000 0.17647059
  Cu427 Cu 0.62000000 0.46000000 0.17647059
  Cu428 Cu 0.22000000 0.26000000 0.17647059
  Cu429 Cu 0.42000000 0.86000000 0.17647059
  Cu430 Cu 0.02000000 0.66000000 0.17647059
  Cu431 Cu 0.84000000 0.12000000 0.17647059
  Cu432 Cu 0.64000000 0.52000000 0.17647059
  Cu433 Cu 0.24000000 0.32000000 0.17647059
  Cu434 Cu 0.44000000 0.92000000 0.17647059
  Cu435 Cu 0.04000000 0.72000000 0.17647059
  Cu436 Cu 0.86000000 0.18000000 0.17647059
  Cu437 Cu 0.66000000 0.58000000 0.17647059
  Cu438 Cu 0.26000000 0.38000000 0.17647059
  Cu439 Cu 0.46000000 0.98000000 0.17647059
  Cu440 Cu 0.06000000 0.78000000 0.17647059
  Cu441 Cu 0.88000000 0.24000000 0.17647059
  Cu442 Cu 0.48000000 0.04000000 0.17647059
  Cu443 Cu 0.68000000 0.64000000 0.17647059
  Cu444 Cu 0.28000000 0.44000000 0.17647059
  Cu445 Cu 0.08000000 0.84000000 0.17647059
  Cu446 Cu 0.90000000 0.30000000 0.17647059
  Cu447 Cu 0.50000000 0.10000000 0.17647059
  Cu448 Cu 0.70000000 0.70000000 0.17647059
  Cu449 Cu 0.30000000 0.50000000 0.17647059
  Cu450 Cu 0.10000000 0.90000000 0.17647059
  Cu451 Cu 0.88000000 0.04000000 0.17647059
  Cu452 Cu 0.68000000 0.44000000 0.17647059
  Cu453 Cu 0.28000000 0.24000000 0.17647059
  Cu454 Cu 0.48000000 0.84000000 0.17647059
  Cu455 Cu 0.08000000 0.64000000 0.17647059
  Cu456 Cu 0.90000000 0.10000000 0.17647059
  Cu457 Cu 0.70000000 0.50000000 0.17647059
  Cu458 Cu 0.30000000 0.30000000 0.17647059
  Cu459 Cu 0.50000000 0.90000000 0.17647059
  Cu460 Cu 0.10000000 0.70000000 0.17647059
  Cu461 Cu 0.92000000 0.16000000 0.17647059
  Cu462 Cu 0.72000000 0.56000000 0.17647059
  Cu463 Cu 0.32000000 0.36000000 0.17647059
  Cu464 Cu 0.52000000 0.96000000 0.17647059
  Cu465 Cu 0.12000000 0.76000000 0.17647059
  Cu466 Cu 0.94000000 0.22000000 0.17647059
  Cu467 Cu 0.54000000 0.02000000 0.17647059
  Cu468 Cu 0.74000000 0.62000000 0.17647059
  Cu469 Cu 0.34000000 0.42000000 0.17647059
  Cu470 Cu 0.14000000 0.82000000 0.17647059
  Cu471 Cu 0.96000000 0.28000000 0.17647059
  Cu472 Cu 0.56000000 0.08000000 0.17647059
  Cu473 Cu 0.76000000 0.68000000 0.17647059
  Cu474 Cu 0.36000000 0.48000000 0.17647059
  Cu475 Cu 0.16000000 0.88000000 0.17647059
  Cu476 Cu 0.94000000 0.02000000 0.17647059
  Cu477 Cu 0.74000000 0.42000000 0.17647059
  Cu478 Cu 0.34000000 0.22000000 0.17647059
  Cu479 Cu 0.54000000 0.82000000 0.17647059
  Cu480 Cu 0.14000000 0.62000000 0.17647059
  Cu481 Cu 0.96000000 0.08000000 0.17647059
  Cu482 Cu 0.76000000 0.48000000 0.17647059
  Cu483 Cu 0.36000000 0.28000000 0.17647059
  Cu484 Cu 0.56000000 0.88000000 0.17647059
  Cu485 Cu 0.16000000 0.68000000 0.17647059
  Cu486 Cu 0.98000000 0.14000000 0.17647059
  Cu487 Cu 0.78000000 0.54000000 0.17647059
  Cu488 Cu 0.38000000 0.34000000 0.17647059
  Cu489 Cu 0.58000000 0.94000000 0.17647059
  Cu490 Cu 0.18000000 0.74000000 0.17647059
  Cu491 Cu 0.60000000 -0.00000000 0.17647059
  Cu492 Cu 0.80000000 0.60000000 0.17647059
  Cu493 Cu 0.40000000 0.40000000 0.17647059
  Cu494 Cu -0.00000000 0.20000000 0.17647059
  Cu495 Cu 0.20000000 0.80000000 0.17647059
  Cu496 Cu 0.62000000 0.06000000 0.17647059
  Cu497 Cu 0.82000000 0.66000000 0.17647059
  Cu498 Cu 0.42000000 0.46000000 0.17647059
  Cu499 Cu 0.02000000 0.26000000 0.17647059
  Cu500 Cu 0.22000000 0.86000000 0.17647059
  Cu501 Cu 0.72666667 0.11333333 0.23529412
  Cu502 Cu 0.92666667 0.71333333 0.23529412
  Cu503 Cu 0.52666667 0.51333333 0.23529412
  Cu504 Cu 0.12666667 0.31333333 0.23529412
  Cu505 Cu 0.32666667 0.91333333 0.23529412
  Cu506 Cu 0.74666667 0.17333333 0.23529412
  Cu507 Cu 0.94666667 0.77333333 0.23529412
  Cu508 Cu 0.54666667 0.57333333 0.23529412
  Cu509 Cu 0.14666667 0.37333333 0.23529412
  Cu510 Cu 0.34666667 0.97333333 0.23529412
  Cu511 Cu 0.76666667 0.23333333 0.23529412
  Cu512 Cu 0.36666667 0.03333333 0.23529412
  Cu513 Cu 0.96666667 0.83333333 0.23529412
  Cu514 Cu 0.56666667 0.63333333 0.23529412
  Cu515 Cu 0.16666667 0.43333333 0.23529412
  Cu516 Cu 0.78666667 0.29333333 0.23529412
  Cu517 Cu 0.38666667 0.09333333 0.23529412
  Cu518 Cu 0.98666667 0.89333333 0.23529412
  Cu519 Cu 0.58666667 0.69333333 0.23529412
  Cu520 Cu 0.18666667 0.49333333 0.23529412
  Cu521 Cu 0.80666667 0.35333333 0.23529412
  Cu522 Cu 0.40666667 0.15333333 0.23529412
  Cu523 Cu 0.60666667 0.75333333 0.23529412
  Cu524 Cu 0.20666667 0.55333333 0.23529412
  Cu525 Cu 0.00666667 0.95333333 0.23529412
  Cu526 Cu 0.78666667 0.09333333 0.23529412
  Cu527 Cu 0.98666667 0.69333333 0.23529412
  Cu528 Cu 0.58666667 0.49333333 0.23529412
  Cu529 Cu 0.18666667 0.29333333 0.23529412
  Cu530 Cu 0.38666667 0.89333333 0.23529412
  Cu531 Cu 0.80666667 0.15333333 0.23529412
  Cu532 Cu 0.60666667 0.55333333 0.23529412
  Cu533 Cu 0.20666667 0.35333333 0.23529412
  Cu534 Cu 0.40666667 0.95333333 0.23529412
  Cu535 Cu 0.00666667 0.75333333 0.23529412
  Cu536 Cu 0.82666667 0.21333333 0.23529412
  Cu537 Cu 0.42666667 0.01333333 0.23529412
  Cu538 Cu 0.62666667 0.61333333 0.23529412
  Cu539 Cu 0.22666667 0.41333333 0.23529412
  Cu540 Cu 0.02666667 0.81333333 0.23529412
  Cu541 Cu 0.84666667 0.27333333 0.23529412
  Cu542 Cu 0.44666667 0.07333333 0.23529412
  Cu543 Cu 0.64666667 0.67333333 0.23529412
  Cu544 Cu 0.24666667 0.47333333 0.23529412
  Cu545 Cu 0.04666667 0.87333333 0.23529412
  Cu546 Cu 0.86666667 0.33333333 0.23529412
  Cu547 Cu 0.46666667 0.13333333 0.23529412
  Cu548 Cu 0.66666667 0.73333333 0.23529412
  Cu549 Cu 0.26666667 0.53333333 0.23529412
  Cu550 Cu 0.06666667 0.93333333 0.23529412
  Cu551 Cu 0.84666667 0.07333333 0.23529412
  Cu552 Cu 0.64666667 0.47333333 0.23529412
  Cu553 Cu 0.24666667 0.27333333 0.23529412
  Cu554 Cu 0.44666667 0.87333333 0.23529412
  Cu555 Cu 0.04666667 0.67333333 0.23529412
  Cu556 Cu 0.86666667 0.13333333 0.23529412
  Cu557 Cu 0.66666667 0.53333333 0.23529412
  Cu558 Cu 0.26666667 0.33333333 0.23529412
  Cu559 Cu 0.46666667 0.93333333 0.23529412
  Cu560 Cu 0.06666667 0.73333333 0.23529412
  Cu561 Cu 0.88666667 0.19333333 0.23529412
  Cu562 Cu 0.68666667 0.59333333 0.23529412
  Cu563 Cu 0.28666667 0.39333333 0.23529412
  Cu564 Cu 0.48666667 0.99333333 0.23529412
  Cu565 Cu 0.08666667 0.79333333 0.23529412
  Cu566 Cu 0.90666667 0.25333333 0.23529412
  Cu567 Cu 0.50666667 0.05333333 0.23529412
  Cu568 Cu 0.70666667 0.65333333 0.23529412
  Cu569 Cu 0.30666667 0.45333333 0.23529412
  Cu570 Cu 0.10666667 0.85333333 0.23529412
  Cu571 Cu 0.92666667 0.31333333 0.23529412
  Cu572 Cu 0.52666667 0.11333333 0.23529412
  Cu573 Cu 0.72666667 0.71333333 0.23529412
  Cu574 Cu 0.32666667 0.51333333 0.23529412
  Cu575 Cu 0.12666667 0.91333333 0.23529412
  Cu576 Cu 0.90666667 0.05333333 0.23529412
  Cu577 Cu 0.70666667 0.45333333 0.23529412
  Cu578 Cu 0.30666667 0.25333333 0.23529412
  Cu579 Cu 0.50666667 0.85333333 0.23529412
  Cu580 Cu 0.10666667 0.65333333 0.23529412
  Cu581 Cu 0.92666667 0.11333333 0.23529412
  Cu582 Cu 0.72666667 0.51333333 0.23529412
  Cu583 Cu 0.32666667 0.31333333 0.23529412
  Cu584 Cu 0.52666667 0.91333333 0.23529412
  Cu585 Cu 0.12666667 0.71333333 0.23529412
  Cu586 Cu 0.94666667 0.17333333 0.23529412
  Cu587 Cu 0.74666667 0.57333333 0.23529412
  Cu588 Cu 0.34666667 0.37333333 0.23529412
  Cu589 Cu 0.54666667 0.97333333 0.23529412
  Cu590 Cu 0.14666667 0.77333333 0.23529412
  Cu591 Cu 0.96666667 0.23333333 0.23529412
  Cu592 Cu 0.56666667 0.03333333 0.23529412
  Cu593 Cu 0.76666667 0.63333333 0.23529412
  Cu594 Cu 0.36666667 0.43333333 0.23529412
  Cu595 Cu 0.16666667 0.83333333 0.23529412
  Cu596 Cu 0.98666667 0.29333333 0.23529412
  Cu597 Cu 0.58666667 0.09333333 0.23529412
  Cu598 Cu 0.78666667 0.69333333 0.23529412
  Cu599 Cu 0.38666667 0.49333333 0.23529412
  Cu600 Cu 0.18666667 0.89333333 0.23529412
  Cu601 Cu 0.96666667 0.03333333 0.23529412
  Cu602 Cu 0.76666667 0.43333333 0.23529412
  Cu603 Cu 0.36666667 0.23333333 0.23529412
  Cu604 Cu 0.56666667 0.83333333 0.23529412
  Cu605 Cu 0.16666667 0.63333333 0.23529412
  Cu606 Cu 0.98666667 0.09333333 0.23529412
  Cu607 Cu 0.78666667 0.49333333 0.23529412
  Cu608 Cu 0.38666667 0.29333333 0.23529412
  Cu609 Cu 0.58666667 0.89333333 0.23529412
  Cu610 Cu 0.18666667 0.69333333 0.23529412
  Cu611 Cu 0.80666667 0.55333333 0.23529412
  Cu612 Cu 0.40666667 0.35333333 0.23529412
  Cu613 Cu 0.00666667 0.15333333 0.23529412
  Cu614 Cu 0.60666667 0.95333333 0.23529412
  Cu615 Cu 0.20666667 0.75333333 0.23529412
  Cu616 Cu 0.62666667 0.01333333 0.23529412
  Cu617 Cu 0.82666667 0.61333333 0.23529412
  Cu618 Cu 0.42666667 0.41333333 0.23529412
  Cu619 Cu 0.02666667 0.21333333 0.23529412
  Cu620 Cu 0.22666667 0.81333333 0.23529412
  Cu621 Cu 0.64666667 0.07333333 0.23529412
  Cu622 Cu 0.84666667 0.67333333 0.23529412
  Cu623 Cu 0.44666667 0.47333333 0.23529412
  Cu624 Cu 0.04666667 0.27333333 0.23529412
  Cu625 Cu 0.24666667 0.87333333 0.23529412
  Cu626 Cu 0.70000000 0.10000000 0.29411765
  Cu627 Cu 0.90000000 0.70000000 0.29411765
  Cu628 Cu 0.50000000 0.50000000 0.29411765
  Cu629 Cu 0.10000000 0.30000000 0.29411765
  Cu630 Cu 0.30000000 0.90000000 0.29411765
  Cu631 Cu 0.72000000 0.16000000 0.29411765
  Cu632 Cu 0.92000000 0.76000000 0.29411765
  Cu633 Cu 0.52000000 0.56000000 0.29411765
  Cu634 Cu 0.12000000 0.36000000 0.29411765
  Cu635 Cu 0.32000000 0.96000000 0.29411765
  Cu636 Cu 0.74000000 0.22000000 0.29411765
  Cu637 Cu 0.34000000 0.02000000 0.29411765
  Cu638 Cu 0.94000000 0.82000000 0.29411765
  Cu639 Cu 0.54000000 0.62000000 0.29411765
  Cu640 Cu 0.14000000 0.42000000 0.29411765
  Cu641 Cu 0.76000000 0.28000000 0.29411765
  Cu642 Cu 0.36000000 0.08000000 0.29411765
  Cu643 Cu 0.96000000 0.88000000 0.29411765
  Cu644 Cu 0.56000000 0.68000000 0.29411765
  Cu645 Cu 0.16000000 0.48000000 0.29411765
  Cu646 Cu 0.78000000 0.34000000 0.29411765
  Cu647 Cu 0.38000000 0.14000000 0.29411765
  Cu648 Cu 0.98000000 0.94000000 0.29411765
  Cu649 Cu 0.58000000 0.74000000 0.29411765
  Cu650 Cu 0.18000000 0.54000000 0.29411765
  Cu651 Cu 0.76000000 0.08000000 0.29411765
  Cu652 Cu 0.96000000 0.68000000 0.29411765
  Cu653 Cu 0.56000000 0.48000000 0.29411765
  Cu654 Cu 0.16000000 0.28000000 0.29411765
  Cu655 Cu 0.36000000 0.88000000 0.29411765
  Cu656 Cu 0.78000000 0.14000000 0.29411765
  Cu657 Cu 0.98000000 0.74000000 0.29411765
  Cu658 Cu 0.58000000 0.54000000 0.29411765
  Cu659 Cu 0.18000000 0.34000000 0.29411765
  Cu660 Cu 0.38000000 0.94000000 0.29411765
  Cu661 Cu 0.80000000 0.20000000 0.29411765
  Cu662 Cu 0.40000000 -0.00000000 0.29411765
  Cu663 Cu 0.60000000 0.60000000 0.29411765
  Cu664 Cu 0.20000000 0.40000000 0.29411765
  Cu665 Cu 0.00000000 0.80000000 0.29411765
  Cu666 Cu 0.82000000 0.26000000 0.29411765
  Cu667 Cu 0.42000000 0.06000000 0.29411765
  Cu668 Cu 0.62000000 0.66000000 0.29411765
  Cu669 Cu 0.22000000 0.46000000 0.29411765
  Cu670 Cu 0.02000000 0.86000000 0.29411765
  Cu671 Cu 0.84000000 0.32000000 0.29411765
  Cu672 Cu 0.44000000 0.12000000 0.29411765
  Cu673 Cu 0.64000000 0.72000000 0.29411765
  Cu674 Cu 0.24000000 0.52000000 0.29411765
  Cu675 Cu 0.04000000 0.92000000 0.29411765
  Cu676 Cu 0.82000000 0.06000000 0.29411765
  Cu677 Cu 0.62000000 0.46000000 0.29411765
  Cu678 Cu 0.22000000 0.26000000 0.29411765
  Cu679 Cu 0.42000000 0.86000000 0.29411765
  Cu680 Cu 0.02000000 0.66000000 0.29411765
  Cu681 Cu 0.84000000 0.12000000 0.29411765
  Cu682 Cu 0.64000000 0.52000000 0.29411765
  Cu683 Cu 0.24000000 0.32000000 0.29411765
  Cu684 Cu 0.44000000 0.92000000 0.29411765
  Cu685 Cu 0.04000000 0.72000000 0.29411765
  Cu686 Cu 0.86000000 0.18000000 0.29411765
  Cu687 Cu 0.66000000 0.58000000 0.29411765
  Cu688 Cu 0.26000000 0.38000000 0.29411765
  Cu689 Cu 0.46000000 0.98000000 0.29411765
  Cu690 Cu 0.06000000 0.78000000 0.29411765
  Cu691 Cu 0.88000000 0.24000000 0.29411765
  Cu692 Cu 0.48000000 0.04000000 0.29411765
  Cu693 Cu 0.68000000 0.64000000 0.29411765
  Cu694 Cu 0.28000000 0.44000000 0.29411765
  Cu695 Cu 0.08000000 0.84000000 0.29411765
  Cu696 Cu 0.90000000 0.30000000 0.29411765
  Cu697 Cu 0.50000000 0.10000000 0.29411765
  Cu698 Cu 0.70000000 0.70000000 0.29411765
  Cu699 Cu 0.30000000 0.50000000 0.29411765
  Cu700 Cu 0.10000000 0.90000000 0.29411765
  Cu701 Cu 0.88000000 0.04000000 0.29411765
  Cu702 Cu 0.68000000 0.44000000 0.29411765
  Cu703 Cu 0.28000000 0.24000000 0.29411765
  Cu704 Cu 0.48000000 0.84000000 0.29411765
  Cu705 Cu 0.08000000 0.64000000 0.29411765
  Cu706 Cu 0.90000000 0.10000000 0.29411765
  Cu707 Cu 0.70000000 0.50000000 0.29411765
  Cu708 Cu 0.30000000 0.30000000 0.29411765
  Cu709 Cu 0.50000000 0.90000000 0.29411765
  Cu710 Cu 0.10000000 0.70000000 0.29411765
  Cu711 Cu 0.92000000 0.16000000 0.29411765
  Cu712 Cu 0.72000000 0.56000000 0.29411765
  Cu713 Cu 0.32000000 0.36000000 0.29411765
  Cu714 Cu 0.52000000 0.96000000 0.29411765
  Cu715 Cu 0.12000000 0.76000000 0.29411765
  Cu716 Cu 0.94000000 0.22000000 0.29411765
  Cu717 Cu 0.54000000 0.02000000 0.29411765
  Cu718 Cu 0.74000000 0.62000000 0.29411765
  Cu719 Cu 0.34000000 0.42000000 0.29411765
  Cu720 Cu 0.14000000 0.82000000 0.29411765
  Cu721 Cu 0.96000000 0.28000000 0.29411765
  Cu722 Cu 0.56000000 0.08000000 0.29411765
  Cu723 Cu 0.76000000 0.68000000 0.29411765
  Cu724 Cu 0.36000000 0.48000000 0.29411765
  Cu725 Cu 0.16000000 0.88000000 0.29411765
  Cu726 Cu 0.94000000 0.02000000 0.29411765
  Cu727 Cu 0.74000000 0.42000000 0.29411765
  Cu728 Cu 0.34000000 0.22000000 0.29411765
  Cu729 Cu 0.54000000 0.82000000 0.29411765
  Cu730 Cu 0.14000000 0.62000000 0.29411765
  Cu731 Cu 0.96000000 0.08000000 0.29411765
  Cu732 Cu 0.76000000 0.48000000 0.29411765
  Cu733 Cu 0.36000000 0.28000000 0.29411765
  Cu734 Cu 0.56000000 0.88000000 0.29411765
  Cu735 Cu 0.16000000 0.68000000 0.29411765
  Cu736 Cu 0.98000000 0.14000000 0.29411765
  Cu737 Cu 0.78000000 0.54000000 0.29411765
  Cu738 Cu 0.38000000 0.34000000 0.29411765
  Cu739 Cu 0.58000000 0.94000000 0.29411765
  Cu740 Cu 0.18000000 0.74000000 0.29411765
  Cu741 Cu 0.60000000 -0.00000000 0.29411765
  Cu742 Cu 0.80000000 0.60000000 0.29411765
  Cu743 Cu 0.40000000 0.40000000 0.29411765
  Cu744 Cu -0.00000000 0.20000000 0.29411765
  Cu745 Cu 0.20000000 0.80000000 0.29411765
  Cu746 Cu 0.62000000 0.06000000 0.29411765
  Cu747 Cu 0.82000000 0.66000000 0.29411765
  Cu748 Cu 0.42000000 0.46000000 0.29411765
  Cu749 Cu 0.02000000 0.26000000 0.29411765
  Cu750 Cu 0.22000000 0.86000000 0.29411765
  Cu751 Cu 0.75333333 0.12666667 0.35294118
  Cu752 Cu 0.95333333 0.72666667 0.35294118
  Cu753 Cu 0.55333333 0.52666667 0.35294118
  Cu754 Cu 0.15333333 0.32666667 0.35294118
  Cu755 Cu 0.35333333 0.92666667 0.35294118
  Cu756 Cu 0.77333333 0.18666667 0.35294118
  Cu757 Cu 0.97333333 0.78666667 0.35294118
  Cu758 Cu 0.57333333 0.58666667 0.35294118
  Cu759 Cu 0.17333333 0.38666667 0.35294118
  Cu760 Cu 0.37333333 0.98666667 0.35294118
  Cu761 Cu 0.79333333 0.24666667 0.35294118
  Cu762 Cu 0.39333333 0.04666667 0.35294118
  Cu763 Cu 0.99333333 0.84666667 0.35294118
  Cu764 Cu 0.59333333 0.64666667 0.35294118
  Cu765 Cu 0.19333333 0.44666667 0.35294118
  Cu766 Cu 0.81333333 0.30666667 0.35294118
  Cu767 Cu 0.41333333 0.10666667 0.35294118
  Cu768 Cu 0.61333333 0.70666667 0.35294118
  Cu769 Cu 0.21333333 0.50666667 0.35294118
  Cu770 Cu 0.01333333 0.90666667 0.35294118
  Cu771 Cu 0.83333333 0.36666667 0.35294118
  Cu772 Cu 0.43333333 0.16666667 0.35294118
  Cu773 Cu 0.63333333 0.76666667 0.35294118
  Cu774 Cu 0.23333333 0.56666667 0.35294118
  Cu775 Cu 0.03333333 0.96666667 0.35294118
  Cu776 Cu 0.81333333 0.10666667 0.35294118
  Cu777 Cu 0.61333333 0.50666667 0.35294118
  Cu778 Cu 0.21333333 0.30666667 0.35294118
  Cu779 Cu 0.41333333 0.90666667 0.35294118
  Cu780 Cu 0.01333333 0.70666667 0.35294118
  Cu781 Cu 0.83333333 0.16666667 0.35294118
  Cu782 Cu 0.63333333 0.56666667 0.35294118
  Cu783 Cu 0.23333333 0.36666667 0.35294118
  Cu784 Cu 0.43333333 0.96666667 0.35294118
  Cu785 Cu 0.03333333 0.76666667 0.35294118
  Cu786 Cu 0.85333333 0.22666667 0.35294118
  Cu787 Cu 0.45333333 0.02666667 0.35294118
  Cu788 Cu 0.65333333 0.62666667 0.35294118
  Cu789 Cu 0.25333333 0.42666667 0.35294118
  Cu790 Cu 0.05333333 0.82666667 0.35294118
  Cu791 Cu 0.87333333 0.28666667 0.35294118
  Cu792 Cu 0.47333333 0.08666667 0.35294118
  Cu793 Cu 0.67333333 0.68666667 0.35294118
  Cu794 Cu 0.27333333 0.48666667 0.35294118
  Cu795 Cu 0.07333333 0.88666667 0.35294118
  Cu796 Cu 0.89333333 0.34666667 0.35294118
  Cu797 Cu 0.49333333 0.14666667 0.35294118
  Cu798 Cu 0.69333333 0.74666667 0.35294118
  Cu799 Cu 0.29333333 0.54666667 0.35294118
  Cu800 Cu 0.09333333 0.94666667 0.35294118
  Cu801 Cu 0.87333333 0.08666667 0.35294118
  Cu802 Cu 0.67333333 0.48666667 0.35294118
  Cu803 Cu 0.27333333 0.28666667 0.35294118
  Cu804 Cu 0.47333333 0.88666667 0.35294118
  Cu805 Cu 0.07333333 0.68666667 0.35294118
  Cu806 Cu 0.89333333 0.14666667 0.35294118
  Cu807 Cu 0.69333333 0.54666667 0.35294118
  Cu808 Cu 0.29333333 0.34666667 0.35294118
  Cu809 Cu 0.49333333 0.94666667 0.35294118
  Cu810 Cu 0.09333333 0.74666667 0.35294118
  Cu811 Cu 0.91333333 0.20666667 0.35294118
  Cu812 Cu 0.51333333 0.00666667 0.35294118
  Cu813 Cu 0.71333333 0.60666667 0.35294118
  Cu814 Cu 0.31333333 0.40666667 0.35294118
  Cu815 Cu 0.11333333 0.80666667 0.35294118
  Cu816 Cu 0.93333333 0.26666667 0.35294118
  Cu817 Cu 0.53333333 0.06666667 0.35294118
  Cu818 Cu 0.73333333 0.66666667 0.35294118
  Cu819 Cu 0.33333333 0.46666667 0.35294118
  Cu820 Cu 0.13333333 0.86666667 0.35294118
  Cu821 Cu 0.95333333 0.32666667 0.35294118
  Cu822 Cu 0.55333333 0.12666667 0.35294118
  Cu823 Cu 0.75333333 0.72666667 0.35294118
  Cu824 Cu 0.35333333 0.52666667 0.35294118
  Cu825 Cu 0.15333333 0.92666667 0.35294118
  Cu826 Cu 0.93333333 0.06666667 0.35294118
  Cu827 Cu 0.73333333 0.46666667 0.35294118
  Cu828 Cu 0.33333333 0.26666667 0.35294118
  Cu829 Cu 0.53333333 0.86666667 0.35294118
  Cu830 Cu 0.13333333 0.66666667 0.35294118
  Cu831 Cu 0.95333333 0.12666667 0.35294118
  Cu832 Cu 0.75333333 0.52666667 0.35294118
  Cu833 Cu 0.35333333 0.32666667 0.35294118
  Cu834 Cu 0.55333333 0.92666667 0.35294118
  Cu835 Cu 0.15333333 0.72666667 0.35294118
  Cu836 Cu 0.97333333 0.18666667 0.35294118
  Cu837 Cu 0.77333333 0.58666667 0.35294118
  Cu838 Cu 0.37333333 0.38666667 0.35294118
  Cu839 Cu 0.57333333 0.98666667 0.35294118
  Cu840 Cu 0.17333333 0.78666667 0.35294118
  Cu841 Cu 0.99333333 0.24666667 0.35294118
  Cu842 Cu 0.59333333 0.04666667 0.35294118
  Cu843 Cu 0.79333333 0.64666667 0.35294118
  Cu844 Cu 0.39333333 0.44666667 0.35294118
  Cu845 Cu 0.19333333 0.84666667 0.35294118
  Cu846 Cu 0.61333333 0.10666667 0.35294118
  Cu847 Cu 0.81333333 0.70666667 0.35294118
  Cu848 Cu 0.41333333 0.50666667 0.35294118
  Cu849 Cu 0.01333333 0.30666667 0.35294118
  Cu850 Cu 0.21333333 0.90666667 0.35294118
  Cu851 Cu 0.99333333 0.04666667 0.35294118
  Cu852 Cu 0.79333333 0.44666667 0.35294118
  Cu853 Cu 0.39333333 0.24666667 0.35294118
  Cu854 Cu 0.59333333 0.84666667 0.35294118
  Cu855 Cu 0.19333333 0.64666667 0.35294118
  Cu856 Cu 0.81333333 0.50666667 0.35294118
  Cu857 Cu 0.41333333 0.30666667 0.35294118
  Cu858 Cu 0.01333333 0.10666667 0.35294118
  Cu859 Cu 0.61333333 0.90666667 0.35294118
  Cu860 Cu 0.21333333 0.70666667 0.35294118
  Cu861 Cu 0.83333333 0.56666667 0.35294118
  Cu862 Cu 0.43333333 0.36666667 0.35294118
  Cu863 Cu 0.03333333 0.16666667 0.35294118
  Cu864 Cu 0.63333333 0.96666667 0.35294118
  Cu865 Cu 0.23333333 0.76666667 0.35294118
  Cu866 Cu 0.65333333 0.02666667 0.35294118
  Cu867 Cu 0.85333333 0.62666667 0.35294118
  Cu868 Cu 0.45333333 0.42666667 0.35294118
  Cu869 Cu 0.05333333 0.22666667 0.35294118
  Cu870 Cu 0.25333333 0.82666667 0.35294118
  Cu871 Cu 0.67333333 0.08666667 0.35294118
  Cu872 Cu 0.87333333 0.68666667 0.35294118
  Cu873 Cu 0.47333333 0.48666667 0.35294118
  Cu874 Cu 0.07333333 0.28666667 0.35294118
  Cu875 Cu 0.27333333 0.88666667 0.35294118
  Cu876 Cu 0.72666667 0.11333333 0.41176471
  Cu877 Cu 0.92666667 0.71333333 0.41176471
  Cu878 Cu 0.52666667 0.51333333 0.41176471
  Cu879 Cu 0.12666667 0.31333333 0.41176471
  Cu880 Cu 0.32666667 0.91333333 0.41176471
  Cu881 Cu 0.74666667 0.17333333 0.41176471
  Cu882 Cu 0.94666667 0.77333333 0.41176471
  Cu883 Cu 0.54666667 0.57333333 0.41176471
  Cu884 Cu 0.14666667 0.37333333 0.41176471
  Cu885 Cu 0.34666667 0.97333333 0.41176471
  Cu886 Cu 0.76666667 0.23333333 0.41176471
  Cu887 Cu 0.36666667 0.03333333 0.41176471
  Cu888 Cu 0.96666667 0.83333333 0.41176471
  Cu889 Cu 0.56666667 0.63333333 0.41176471
  Cu890 Cu 0.16666667 0.43333333 0.41176471
  Cu891 Cu 0.78666667 0.29333333 0.41176471
  Cu892 Cu 0.38666667 0.09333333 0.41176471
  Cu893 Cu 0.98666667 0.89333333 0.41176471
  Cu894 Cu 0.58666667 0.69333333 0.41176471
  Cu895 Cu 0.18666667 0.49333333 0.41176471
  Cu896 Cu 0.80666667 0.35333333 0.41176471
  Cu897 Cu 0.40666667 0.15333333 0.41176471
  Cu898 Cu 0.60666667 0.75333333 0.41176471
  Cu899 Cu 0.20666667 0.55333333 0.41176471
  Cu900 Cu 0.00666667 0.95333333 0.41176471
  Cu901 Cu 0.78666667 0.09333333 0.41176471
  Cu902 Cu 0.98666667 0.69333333 0.41176471
  Cu903 Cu 0.58666667 0.49333333 0.41176471
  Cu904 Cu 0.18666667 0.29333333 0.41176471
  Cu905 Cu 0.38666667 0.89333333 0.41176471
  Cu906 Cu 0.80666667 0.15333333 0.41176471
  Cu907 Cu 0.60666667 0.55333333 0.41176471
  Cu908 Cu 0.20666667 0.35333333 0.41176471
  Cu909 Cu 0.40666667 0.95333333 0.41176471
  Cu910 Cu 0.00666667 0.75333333 0.41176471
  Cu911 Cu 0.82666667 0.21333333 0.41176471
  Cu912 Cu 0.42666667 0.01333333 0.41176471
  Cu913 Cu 0.62666667 0.61333333 0.41176471
  Cu914 Cu 0.22666667 0.41333333 0.41176471
  Cu915 Cu 0.02666667 0.81333333 0.41176471
  Cu916 Cu 0.84666667 0.27333333 0.41176471
  Cu917 Cu 0.44666667 0.07333333 0.41176471
  Cu918 Cu 0.64666667 0.67333333 0.41176471
  Cu919 Cu 0.24666667 0.47333333 0.41176471
  Cu920 Cu 0.04666667 0.87333333 0.41176471
  Cu921 Cu 0.86666667 0.33333333 0.41176471
  Cu922 Cu 0.46666667 0.13333333 0.41176471
  Cu923 Cu 0.66666667 0.73333333 0.41176471
  Cu924 Cu 0.26666667 0.53333333 0.41176471
  Cu925 Cu 0.06666667 0.93333333 0.41176471
  Cu926 Cu 0.84666667 0.07333333 0.41176471
  Cu927 Cu 0.64666667 0.47333333 0.41176471
  Cu928 Cu 0.24666667 0.27333333 0.41176471
  Cu929 Cu 0.44666667 0.87333333 0.41176471
  Cu930 Cu 0.04666667 0.67333333 0.41176471
  Cu931 Cu 0.86666667 0.13333333 0.41176471
  Cu932 Cu 0.66666667 0.53333333 0.41176471
  Cu933 Cu 0.26666667 0.33333333 0.41176471
  Cu934 Cu 0.46666667 0.93333333 0.41176471
  Cu935 Cu 0.06666667 0.73333333 0.41176471
  Cu936 Cu 0.88666667 0.19333333 0.41176471
  Cu937 Cu 0.68666667 0.59333333 0.41176471
  Cu938 Cu 0.28666667 0.39333333 0.41176471
  Cu939 Cu 0.48666667 0.99333333 0.41176471
  Cu940 Cu 0.08666667 0.79333333 0.41176471
  Cu941 Cu 0.90666667 0.25333333 0.41176471
  Cu942 Cu 0.50666667 0.05333333 0.41176471
  Cu943 Cu 0.70666667 0.65333333 0.41176471
  Cu944 Cu 0.30666667 0.45333333 0.41176471
  Cu945 Cu 0.10666667 0.85333333 0.41176471
  Cu946 Cu 0.92666667 0.31333333 0.41176471
  Cu947 Cu 0.52666667 0.11333333 0.41176471
  Cu948 Cu 0.72666667 0.71333333 0.41176471
  Cu949 Cu 0.32666667 0.51333333 0.41176471
  Cu950 Cu 0.12666667 0.91333333 0.41176471
  Cu951 Cu 0.90666667 0.05333333 0.41176471
  Cu952 Cu 0.70666667 0.45333333 0.41176471
  Cu953 Cu 0.30666667 0.25333333 0.41176471
  Cu954 Cu 0.50666667 0.85333333 0.41176471
  Cu955 Cu 0.10666667 0.65333333 0.41176471
  Cu956 Cu 0.92666667 0.11333333 0.41176471
  Cu957 Cu 0.72666667 0.51333333 0.41176471
  Cu958 Cu 0.32666667 0.31333333 0.41176471
  Cu959 Cu 0.52666667 0.91333333 0.41176471
  Cu960 Cu 0.12666667 0.71333333 0.41176471
  Cu961 Cu 0.94666667 0.17333333 0.41176471
  Cu962 Cu 0.74666667 0.57333333 0.41176471
  Cu963 Cu 0.34666667 0.37333333 0.41176471
  Cu964 Cu 0.54666667 0.97333333 0.41176471
  Cu965 Cu 0.14666667 0.77333333 0.41176471
  Cu966 Cu 0.96666667 0.23333333 0.41176471
  Cu967 Cu 0.56666667 0.03333333 0.41176471
  Cu968 Cu 0.76666667 0.63333333 0.41176471
  Cu969 Cu 0.36666667 0.43333333 0.41176471
  Cu970 Cu 0.16666667 0.83333333 0.41176471
  Cu971 Cu 0.98666667 0.29333333 0.41176471
  Cu972 Cu 0.58666667 0.09333333 0.41176471
  Cu973 Cu 0.78666667 0.69333333 0.41176471
  Cu974 Cu 0.38666667 0.49333333 0.41176471
  Cu975 Cu 0.18666667 0.89333333 0.41176471
  Cu976 Cu 0.96666667 0.03333333 0.41176471
  Cu977 Cu 0.76666667 0.43333333 0.41176471
  Cu978 Cu 0.36666667 0.23333333 0.41176471
  Cu979 Cu 0.56666667 0.83333333 0.41176471
  Cu980 Cu 0.16666667 0.63333333 0.41176471
  Cu981 Cu 0.98666667 0.09333333 0.41176471
  Cu982 Cu 0.78666667 0.49333333 0.41176471
  Cu983 Cu 0.38666667 0.29333333 0.41176471
  Cu984 Cu 0.58666667 0.89333333 0.41176471
  Cu985 Cu 0.18666667 0.69333333 0.41176471
  Cu986 Cu 0.80666667 0.55333333 0.41176471
  Cu987 Cu 0.40666667 0.35333333 0.41176471
  Cu988 Cu 0.00666667 0.15333333 0.41176471
  Cu989 Cu 0.60666667 0.95333333 0.41176471
  Cu990 Cu 0.20666667 0.75333333 0.41176471
  Cu991 Cu 0.62666667 0.01333333 0.41176471
  Cu992 Cu 0.82666667 0.61333333 0.41176471
  Cu993 Cu 0.42666667 0.41333333 0.41176471
  Cu994 Cu 0.02666667 0.21333333 0.41176471
  Cu995 Cu 0.22666667 0.81333333 0.41176471
  Cu996 Cu 0.64666667 0.07333333 0.41176471
  Cu997 Cu 0.84666667 0.67333333 0.41176471
  Cu998 Cu 0.44666667 0.47333333 0.41176471
  Cu999 Cu 0.04666667 0.27333333 0.41176471
  Cu1000 Cu 0.24666667 0.87333333 0.41176471
  Cu1001 Cu 0.70000000 0.10000000 0.47058824
  Cu1002 Cu 0.90000000 0.70000000 0.47058824
  Cu1003 Cu 0.50000000 0.50000000 0.47058824
  Cu1004 Cu 0.10000000 0.30000000 0.47058824
  Cu1005 Cu 0.30000000 0.90000000 0.47058824
  Cu1006 Cu 0.72000000 0.16000000 0.47058824
  Cu1007 Cu 0.92000000 0.76000000 0.47058824
  Cu1008 Cu 0.52000000 0.56000000 0.47058824
  Cu1009 Cu 0.12000000 0.36000000 0.47058824
  Cu1010 Cu 0.32000000 0.96000000 0.47058824
  Cu1011 Cu 0.74000000 0.22000000 0.47058824
  Cu1012 Cu 0.34000000 0.02000000 0.47058824
  Cu1013 Cu 0.94000000 0.82000000 0.47058824
  Cu1014 Cu 0.54000000 0.62000000 0.47058824
  Cu1015 Cu 0.14000000 0.42000000 0.47058824
  Cu1016 Cu 0.76000000 0.28000000 0.47058824
  Cu1017 Cu 0.36000000 0.08000000 0.47058824
  Cu1018 Cu 0.96000000 0.88000000 0.47058824
  Cu1019 Cu 0.56000000 0.68000000 0.47058824
  Cu1020 Cu 0.16000000 0.48000000 0.47058824
  Cu1021 Cu 0.78000000 0.34000000 0.47058824
  Cu1022 Cu 0.38000000 0.14000000 0.47058824
  Cu1023 Cu 0.98000000 0.94000000 0.47058824
  Cu1024 Cu 0.58000000 0.74000000 0.47058824
  Cu1025 Cu 0.18000000 0.54000000 0.47058824
  Cu1026 Cu 0.76000000 0.08000000 0.47058824
  Cu1027 Cu 0.96000000 0.68000000 0.47058824
  Cu1028 Cu 0.56000000 0.48000000 0.47058824
  Cu1029 Cu 0.16000000 0.28000000 0.47058824
  Cu1030 Cu 0.36000000 0.88000000 0.47058824
  Cu1031 Cu 0.78000000 0.14000000 0.47058824
  Cu1032 Cu 0.98000000 0.74000000 0.47058824
  Cu1033 Cu 0.58000000 0.54000000 0.47058824
  Cu1034 Cu 0.18000000 0.34000000 0.47058824
  Cu1035 Cu 0.38000000 0.94000000 0.47058824
  Cu1036 Cu 0.80000000 0.20000000 0.47058824
  Cu1037 Cu 0.40000000 -0.00000000 0.47058824
  Cu1038 Cu 0.60000000 0.60000000 0.47058824
  Cu1039 Cu 0.20000000 0.40000000 0.47058824
  Cu1040 Cu 0.00000000 0.80000000 0.47058824
  Cu1041 Cu 0.82000000 0.26000000 0.47058824
  Cu1042 Cu 0.42000000 0.06000000 0.47058824
  Cu1043 Cu 0.62000000 0.66000000 0.47058824
  Cu1044 Cu 0.22000000 0.46000000 0.47058824
  Cu1045 Cu 0.02000000 0.86000000 0.47058824
  Cu1046 Cu 0.84000000 0.32000000 0.47058824
  Cu1047 Cu 0.44000000 0.12000000 0.47058824
  Cu1048 Cu 0.64000000 0.72000000 0.47058824
  Cu1049 Cu 0.24000000 0.52000000 0.47058824
  Cu1050 Cu 0.04000000 0.92000000 0.47058824
  Cu1051 Cu 0.82000000 0.06000000 0.47058824
  Cu1052 Cu 0.62000000 0.46000000 0.47058824
  Cu1053 Cu 0.22000000 0.26000000 0.47058824
  Cu1054 Cu 0.42000000 0.86000000 0.47058824
  Cu1055 Cu 0.02000000 0.66000000 0.47058824
  Cu1056 Cu 0.84000000 0.12000000 0.47058824
  Cu1057 Cu 0.64000000 0.52000000 0.47058824
  Cu1058 Cu 0.24000000 0.32000000 0.47058824
  Cu1059 Cu 0.44000000 0.92000000 0.47058824
  Cu1060 Cu 0.04000000 0.72000000 0.47058824
  Cu1061 Cu 0.86000000 0.18000000 0.47058824
  Cu1062 Cu 0.66000000 0.58000000 0.47058824
  Cu1063 Cu 0.26000000 0.38000000 0.47058824
  Cu1064 Cu 0.46000000 0.98000000 0.47058824
  Cu1065 Cu 0.06000000 0.78000000 0.47058824
  Cu1066 Cu 0.88000000 0.24000000 0.47058824
  Cu1067 Cu 0.48000000 0.04000000 0.47058824
  Cu1068 Cu 0.68000000 0.64000000 0.47058824
  Cu1069 Cu 0.28000000 0.44000000 0.47058824
  Cu1070 Cu 0.08000000 0.84000000 0.47058824
  Cu1071 Cu 0.90000000 0.30000000 0.47058824
  Cu1072 Cu 0.50000000 0.10000000 0.47058824
  Cu1073 Cu 0.70000000 0.70000000 0.47058824
  Cu1074 Cu 0.30000000 0.50000000 0.47058824
  Cu1075 Cu 0.10000000 0.90000000 0.47058824
  Cu1076 Cu 0.88000000 0.04000000 0.47058824
  Cu1077 Cu 0.68000000 0.44000000 0.47058824
  Cu1078 Cu 0.28000000 0.24000000 0.47058824
  Cu1079 Cu 0.48000000 0.84000000 0.47058824
  Cu1080 Cu 0.08000000 0.64000000 0.47058824
  Cu1081 Cu 0.90000000 0.10000000 0.47058824
  Cu1082 Cu 0.70000000 0.50000000 0.47058824
  Cu1083 Cu 0.30000000 0.30000000 0.47058824
  Cu1084 Cu 0.50000000 0.90000000 0.47058824
  Cu1085 Cu 0.10000000 0.70000000 0.47058824
  Cu1086 Cu 0.92000000 0.16000000 0.47058824
  Cu1087 Cu 0.72000000 0.56000000 0.47058824
  Cu1088 Cu 0.32000000 0.36000000 0.47058824
  Cu1089 Cu 0.52000000 0.96000000 0.47058824
  Cu1090 Cu 0.12000000 0.76000000 0.47058824
  Cu1091 Cu 0.94000000 0.22000000 0.47058824
  Cu1092 Cu 0.54000000 0.02000000 0.47058824
  Cu1093 Cu 0.74000000 0.62000000 0.47058824
  Cu1094 Cu 0.34000000 0.42000000 0.47058824
  Cu1095 Cu 0.14000000 0.82000000 0.47058824
  Cu1096 Cu 0.96000000 0.28000000 0.47058824
  Cu1097 Cu 0.56000000 0.08000000 0.47058824
  Cu1098 Cu 0.76000000 0.68000000 0.47058824
  Cu1099 Cu 0.36000000 0.48000000 0.47058824
  Cu1100 Cu 0.16000000 0.88000000 0.47058824
  Cu1101 Cu 0.94000000 0.02000000 0.47058824
  Cu1102 Cu 0.74000000 0.42000000 0.47058824
  Cu1103 Cu 0.34000000 0.22000000 0.47058824
  Cu1104 Cu 0.54000000 0.82000000 0.47058824
  Cu1105 Cu 0.14000000 0.62000000 0.47058824
  Cu1106 Cu 0.96000000 0.08000000 0.47058824
  Cu1107 Cu 0.76000000 0.48000000 0.47058824
  Cu1108 Cu 0.36000000 0.28000000 0.47058824
  Cu1109 Cu 0.56000000 0.88000000 0.47058824
  Cu1110 Cu 0.16000000 0.68000000 0.47058824
  Cu1111 Cu 0.98000000 0.14000000 0.47058824
  Cu1112 Cu 0.78000000 0.54000000 0.47058824
  Cu1113 Cu 0.38000000 0.34000000 0.47058824
  Cu1114 Cu 0.58000000 0.94000000 0.47058824
  Cu1115 Cu 0.18000000 0.74000000 0.47058824
  Cu1116 Cu 0.60000000 -0.00000000 0.47058824
  Cu1117 Cu 0.80000000 0.60000000 0.47058824
  Cu1118 Cu 0.40000000 0.40000000 0.47058824
  Cu1119 Cu -0.00000000 0.20000000 0.47058824
  Cu1120 Cu 0.20000000 0.80000000 0.47058824
  Cu1121 Cu 0.62000000 0.06000000 0.47058824
  Cu1122 Cu 0.82000000 0.66000000 0.47058824
  Cu1123 Cu 0.42000000 0.46000000 0.47058824
  Cu1124 Cu 0.02000000 0.26000000 0.47058824
  Cu1125 Cu 0.22000000 0.86000000 0.47058824
  Cu1126 Cu 0.75333333 0.12666667 0.52941176
  Cu1127 Cu 0.95333333 0.72666667 0.52941176
  Cu1128 Cu 0.55333333 0.52666667 0.52941176
  Cu1129 Cu 0.15333333 0.32666667 0.52941176
  Cu1130 Cu 0.35333333 0.92666667 0.52941176
  Cu1131 Cu 0.77333333 0.18666667 0.52941176
  Cu1132 Cu 0.97333333 0.78666667 0.52941176
  Cu1133 Cu 0.57333333 0.58666667 0.52941176
  Cu1134 Cu 0.17333333 0.38666667 0.52941176
  Cu1135 Cu 0.37333333 0.98666667 0.52941176
  Cu1136 Cu 0.79333333 0.24666667 0.52941176
  Cu1137 Cu 0.39333333 0.04666667 0.52941176
  Cu1138 Cu 0.99333333 0.84666667 0.52941176
  Cu1139 Cu 0.59333333 0.64666667 0.52941176
  Cu1140 Cu 0.19333333 0.44666667 0.52941176
  Cu1141 Cu 0.81333333 0.30666667 0.52941176
  Cu1142 Cu 0.41333333 0.10666667 0.52941176
  Cu1143 Cu 0.61333333 0.70666667 0.52941176
  Cu1144 Cu 0.21333333 0.50666667 0.52941176
  Cu1145 Cu 0.01333333 0.90666667 0.52941176
  Cu1146 Cu 0.83333333 0.36666667 0.52941176
  Cu1147 Cu 0.43333333 0.16666667 0.52941176
  Cu1148 Cu 0.63333333 0.76666667 0.52941176
  Cu1149 Cu 0.23333333 0.56666667 0.52941176
  Cu1150 Cu 0.03333333 0.96666667 0.52941176
  Cu1151 Cu 0.81333333 0.10666667 0.52941176
  Cu1152 Cu 0.61333333 0.50666667 0.52941176
  Cu1153 Cu 0.21333333 0.30666667 0.52941176
  Cu1154 Cu 0.41333333 0.90666667 0.52941176
  Cu1155 Cu 0.01333333 0.70666667 0.52941176
  Cu1156 Cu 0.83333333 0.16666667 0.52941176
  Cu1157 Cu 0.63333333 0.56666667 0.52941176
  Cu1158 Cu 0.23333333 0.36666667 0.52941176
  Cu1159 Cu 0.43333333 0.96666667 0.52941176
  Cu1160 Cu 0.03333333 0.76666667 0.52941176
  Cu1161 Cu 0.85333333 0.22666667 0.52941176
  Cu1162 Cu 0.45333333 0.02666667 0.52941176
  Cu1163 Cu 0.65333333 0.62666667 0.52941176
  Cu1164 Cu 0.25333333 0.42666667 0.52941176
  Cu1165 Cu 0.05333333 0.82666667 0.52941176
  Cu1166 Cu 0.87333333 0.28666667 0.52941176
  Cu1167 Cu 0.47333333 0.08666667 0.52941176
  Cu1168 Cu 0.67333333 0.68666667 0.52941176
  Cu1169 Cu 0.27333333 0.48666667 0.52941176
  Cu1170 Cu 0.07333333 0.88666667 0.52941176
  Cu1171 Cu 0.89333333 0.34666667 0.52941176
  Cu1172 Cu 0.49333333 0.14666667 0.52941176
  Cu1173 Cu 0.69333333 0.74666667 0.52941176
  Cu1174 Cu 0.29333333 0.54666667 0.52941176
  Cu1175 Cu 0.09333333 0.94666667 0.52941176
  Cu1176 Cu 0.87333333 0.08666667 0.52941176
  Cu1177 Cu 0.67333333 0.48666667 0.52941176
  Cu1178 Cu 0.27333333 0.28666667 0.52941176
  Cu1179 Cu 0.47333333 0.88666667 0.52941176
  Cu1180 Cu 0.07333333 0.68666667 0.52941176
  Cu1181 Cu 0.89333333 0.14666667 0.52941176
  Cu1182 Cu 0.69333333 0.54666667 0.52941176
  Cu1183 Cu 0.29333333 0.34666667 0.52941176
  Cu1184 Cu 0.49333333 0.94666667 0.52941176
  Cu1185 Cu 0.09333333 0.74666667 0.52941176
  Cu1186 Cu 0.91333333 0.20666667 0.52941176
  Cu1187 Cu 0.51333333 0.00666667 0.52941176
  Cu1188 Cu 0.71333333 0.60666667 0.52941176
  Cu1189 Cu 0.31333333 0.40666667 0.52941176
  Cu1190 Cu 0.11333333 0.80666667 0.52941176
  Cu1191 Cu 0.93333333 0.26666667 0.52941176
  Cu1192 Cu 0.53333333 0.06666667 0.52941176
  Cu1193 Cu 0.73333333 0.66666667 0.52941176
  Cu1194 Cu 0.33333333 0.46666667 0.52941176
  Cu1195 Cu 0.13333333 0.86666667 0.52941176
  Cu1196 Cu 0.95333333 0.32666667 0.52941176
  Cu1197 Cu 0.55333333 0.12666667 0.52941176
  Cu1198 Cu 0.75333333 0.72666667 0.52941176
  Cu1199 Cu 0.35333333 0.52666667 0.52941176
  Cu1200 Cu 0.15333333 0.92666667 0.52941176
  Cu1201 Cu 0.93333333 0.06666667 0.52941176
  Cu1202 Cu 0.73333333 0.46666667 0.52941176
  Cu1203 Cu 0.33333333 0.26666667 0.52941176
  Cu1204 Cu 0.53333333 0.86666667 0.52941176
  Cu1205 Cu 0.13333333 0.66666667 0.52941176
  Cu1206 Cu 0.95333333 0.12666667 0.52941176
  Cu1207 Cu 0.75333333 0.52666667 0.52941176
  Cu1208 Cu 0.35333333 0.32666667 0.52941176
  Cu1209 Cu 0.55333333 0.92666667 0.52941176
  Cu1210 Cu 0.15333333 0.72666667 0.52941176
  Cu1211 Cu 0.97333333 0.18666667 0.52941176
  Cu1212 Cu 0.77333333 0.58666667 0.52941176
  Cu1213 Cu 0.37333333 0.38666667 0.52941176
  Cu1214 Cu 0.57333333 0.98666667 0.52941176
  Cu1215 Cu 0.17333333 0.78666667 0.52941176
  Cu1216 Cu 0.99333333 0.24666667 0.52941176
  Cu1217 Cu 0.59333333 0.04666667 0.52941176
  Cu1218 Cu 0.79333333 0.64666667 0.52941176
  Cu1219 Cu 0.39333333 0.44666667 0.52941176
  Cu1220 Cu 0.19333333 0.84666667 0.52941176
  Cu1221 Cu 0.61333333 0.10666667 0.52941176
  Cu1222 Cu 0.81333333 0.70666667 0.52941176
  Cu1223 Cu 0.41333333 0.50666667 0.52941176
  Cu1224 Cu 0.01333333 0.30666667 0.52941176
  Cu1225 Cu 0.21333333 0.90666667 0.52941176
  Cu1226 Cu 0.99333333 0.04666667 0.52941176
  Cu1227 Cu 0.79333333 0.44666667 0.52941176
  Cu1228 Cu 0.39333333 0.24666667 0.52941176
  Cu1229 Cu 0.59333333 0.84666667 0.52941176
  Cu1230 Cu 0.19333333 0.64666667 0.52941176
  Cu1231 Cu 0.81333333 0.50666667 0.52941176
  Cu1232 Cu 0.41333333 0.30666667 0.52941176
  Cu1233 Cu 0.01333333 0.10666667 0.52941176
  Cu1234 Cu 0.61333333 0.90666667 0.52941176
  Cu1235 Cu 0.21333333 0.70666667 0.52941176
  Cu1236 Cu 0.83333333 0.56666667 0.52941176
  Cu1237 Cu 0.43333333 0.36666667 0.52941176
  Cu1238 Cu 0.03333333 0.16666667 0.52941176
  Cu1239 Cu 0.63333333 0.96666667 0.52941176
  Cu1240 Cu 0.23333333 0.76666667 0.52941176
  Cu1241 Cu 0.65333333 0.02666667 0.52941176
  Cu1242 Cu 0.85333333 0.62666667 0.52941176
  Cu1243 Cu 0.45333333 0.42666667 0.52941176
  Cu1244 Cu 0.05333333 0.22666667 0.52941176
  Cu1245 Cu 0.25333333 0.82666667 0.52941176
  Cu1246 Cu 0.67333333 0.08666667 0.52941176
  Cu1247 Cu 0.87333333 0.68666667 0.52941176
  Cu1248 Cu 0.47333333 0.48666667 0.52941176
  Cu1249 Cu 0.07333333 0.28666667 0.52941176
  Cu1250 Cu 0.27333333 0.88666667 0.52941176
  Cu1251 Cu 0.72666667 0.11333333 0.58823529
  Cu1252 Cu 0.92666667 0.71333333 0.58823529
  Cu1253 Cu 0.52666667 0.51333333 0.58823529
  Cu1254 Cu 0.12666667 0.31333333 0.58823529
  Cu1255 Cu 0.32666667 0.91333333 0.58823529
  Cu1256 Cu 0.74666667 0.17333333 0.58823529
  Cu1257 Cu 0.94666667 0.77333333 0.58823529
  Cu1258 Cu 0.54666667 0.57333333 0.58823529
  Cu1259 Cu 0.14666667 0.37333333 0.58823529
  Cu1260 Cu 0.34666667 0.97333333 0.58823529
  Cu1261 Cu 0.76666667 0.23333333 0.58823529
  Cu1262 Cu 0.36666667 0.03333333 0.58823529
  Cu1263 Cu 0.96666667 0.83333333 0.58823529
  Cu1264 Cu 0.56666667 0.63333333 0.58823529
  Cu1265 Cu 0.16666667 0.43333333 0.58823529
  Cu1266 Cu 0.78666667 0.29333333 0.58823529
  Cu1267 Cu 0.38666667 0.09333333 0.58823529
  Cu1268 Cu 0.98666667 0.89333333 0.58823529
  Cu1269 Cu 0.58666667 0.69333333 0.58823529
  Cu1270 Cu 0.18666667 0.49333333 0.58823529
  Cu1271 Cu 0.80666667 0.35333333 0.58823529
  Cu1272 Cu 0.40666667 0.15333333 0.58823529
  Cu1273 Cu 0.60666667 0.75333333 0.58823529
  Cu1274 Cu 0.20666667 0.55333333 0.58823529
  Cu1275 Cu 0.00666667 0.95333333 0.58823529
  Cu1276 Cu 0.78666667 0.09333333 0.58823529
  Cu1277 Cu 0.98666667 0.69333333 0.58823529
  Cu1278 Cu 0.58666667 0.49333333 0.58823529
  Cu1279 Cu 0.18666667 0.29333333 0.58823529
  Cu1280 Cu 0.38666667 0.89333333 0.58823529
  Cu1281 Cu 0.80666667 0.15333333 0.58823529
  Cu1282 Cu 0.60666667 0.55333333 0.58823529
  Cu1283 Cu 0.20666667 0.35333333 0.58823529
  Cu1284 Cu 0.40666667 0.95333333 0.58823529
  Cu1285 Cu 0.00666667 0.75333333 0.58823529
  Cu1286 Cu 0.82666667 0.21333333 0.58823529
  Cu1287 Cu 0.42666667 0.01333333 0.58823529
  Cu1288 Cu 0.62666667 0.61333333 0.58823529
  Cu1289 Cu 0.22666667 0.41333333 0.58823529
  Cu1290 Cu 0.02666667 0.81333333 0.58823529
  Cu1291 Cu 0.84666667 0.27333333 0.58823529
  Cu1292 Cu 0.44666667 0.07333333 0.58823529
  Cu1293 Cu 0.64666667 0.67333333 0.58823529
  Cu1294 Cu 0.24666667 0.47333333 0.58823529
  Cu1295 Cu 0.04666667 0.87333333 0.58823529
  Cu1296 Cu 0.86666667 0.33333333 0.58823529
  Cu1297 Cu 0.46666667 0.13333333 0.58823529
  Cu1298 Cu 0.66666667 0.73333333 0.58823529
  Cu1299 Cu 0.26666667 0.53333333 0.58823529
  Cu1300 Cu 0.06666667 0.93333333 0.58823529
  Cu1301 Cu 0.84666667 0.07333333 0.58823529
  Cu1302 Cu 0.64666667 0.47333333 0.58823529
  Cu1303 Cu 0.24666667 0.27333333 0.58823529
  Cu1304 Cu 0.44666667 0.87333333 0.58823529
  Cu1305 Cu 0.04666667 0.67333333 0.58823529
  Cu1306 Cu 0.86666667 0.13333333 0.58823529
  Cu1307 Cu 0.66666667 0.53333333 0.58823529
  Cu1308 Cu 0.26666667 0.33333333 0.58823529
  Cu1309 Cu 0.46666667 0.93333333 0.58823529
  Cu1310 Cu 0.06666667 0.73333333 0.58823529
  Cu1311 Cu 0.88666667 0.19333333 0.58823529
  Cu1312 Cu 0.68666667 0.59333333 0.58823529
  Cu1313 Cu 0.28666667 0.39333333 0.58823529
  Cu1314 Cu 0.48666667 0.99333333 0.58823529
  Cu1315 Cu 0.08666667 0.79333333 0.58823529
  Cu1316 Cu 0.90666667 0.25333333 0.58823529
  Cu1317 Cu 0.50666667 0.05333333 0.58823529
  Cu1318 Cu 0.70666667 0.65333333 0.58823529
  Cu1319 Cu 0.30666667 0.45333333 0.58823529
  Cu1320 Cu 0.10666667 0.85333333 0.58823529
  Cu1321 Cu 0.92666667 0.31333333 0.58823529
  Cu1322 Cu 0.52666667 0.11333333 0.58823529
  Cu1323 Cu 0.72666667 0.71333333 0.58823529
  Cu1324 Cu 0.32666667 0.51333333 0.58823529
  Cu1325 Cu 0.12666667 0.91333333 0.58823529
  Cu1326 Cu 0.90666667 0.05333333 0.58823529
  Cu1327 Cu 0.70666667 0.45333333 0.58823529
  Cu1328 Cu 0.30666667 0.25333333 0.58823529
  Cu1329 Cu 0.50666667 0.85333333 0.58823529
  Cu1330 Cu 0.10666667 0.65333333 0.58823529
  Cu1331 Cu 0.92666667 0.11333333 0.58823529
  Cu1332 Cu 0.72666667 0.51333333 0.58823529
  Cu1333 Cu 0.32666667 0.31333333 0.58823529
  Cu1334 Cu 0.52666667 0.91333333 0.58823529
  Cu1335 Cu 0.12666667 0.71333333 0.58823529
  Cu1336 Cu 0.94666667 0.17333333 0.58823529
  Cu1337 Cu 0.74666667 0.57333333 0.58823529
  Cu1338 Cu 0.34666667 0.37333333 0.58823529
  Cu1339 Cu 0.54666667 0.97333333 0.58823529
  Cu1340 Cu 0.14666667 0.77333333 0.58823529
  Cu1341 Cu 0.96666667 0.23333333 0.58823529
  Cu1342 Cu 0.56666667 0.03333333 0.58823529
  Cu1343 Cu 0.76666667 0.63333333 0.58823529
  Cu1344 Cu 0.36666667 0.43333333 0.58823529
  Cu1345 Cu 0.16666667 0.83333333 0.58823529
  Cu1346 Cu 0.98666667 0.29333333 0.58823529
  Cu1347 Cu 0.58666667 0.09333333 0.58823529
  Cu1348 Cu 0.78666667 0.69333333 0.58823529
  Cu1349 Cu 0.38666667 0.49333333 0.58823529
  Cu1350 Cu 0.18666667 0.89333333 0.58823529
  Cu1351 Cu 0.96666667 0.03333333 0.58823529
  Cu1352 Cu 0.76666667 0.43333333 0.58823529
  Cu1353 Cu 0.36666667 0.23333333 0.58823529
  Cu1354 Cu 0.56666667 0.83333333 0.58823529
  Cu1355 Cu 0.16666667 0.63333333 0.58823529
  Cu1356 Cu 0.98666667 0.09333333 0.58823529
  Cu1357 Cu 0.78666667 0.49333333 0.58823529
  Cu1358 Cu 0.38666667 0.29333333 0.58823529
  Cu1359 Cu 0.58666667 0.89333333 0.58823529
  Cu1360 Cu 0.18666667 0.69333333 0.58823529
  Cu1361 Cu 0.80666667 0.55333333 0.58823529
  Cu1362 Cu 0.40666667 0.35333333 0.58823529
  Cu1363 Cu 0.00666667 0.15333333 0.58823529
  Cu1364 Cu 0.60666667 0.95333333 0.58823529
  Cu1365 Cu 0.20666667 0.75333333 0.58823529
  Cu1366 Cu 0.62666667 0.01333333 0.58823529
  Cu1367 Cu 0.82666667 0.61333333 0.58823529
  Cu1368 Cu 0.42666667 0.41333333 0.58823529
  Cu1369 Cu 0.02666667 0.21333333 0.58823529
  Cu1370 Cu 0.22666667 0.81333333 0.58823529
  Cu1371 Cu 0.64666667 0.07333333 0.58823529
  Cu1372 Cu 0.84666667 0.67333333 0.58823529
  Cu1373 Cu 0.44666667 0.47333333 0.58823529
  Cu1374 Cu 0.04666667 0.27333333 0.58823529
  Cu1375 Cu 0.24666667 0.87333333 0.58823529
  Cu1376 Cu 0.70000000 0.10000000 0.64705882
  Cu1377 Cu 0.90000000 0.70000000 0.64705882
  Cu1378 Cu 0.50000000 0.50000000 0.64705882
  Cu1379 Cu 0.10000000 0.30000000 0.64705882
  Cu1380 Cu 0.30000000 0.90000000 0.64705882
  Cu1381 Cu 0.72000000 0.16000000 0.64705882
  Cu1382 Cu 0.92000000 0.76000000 0.64705882
  Cu1383 Cu 0.52000000 0.56000000 0.64705882
  Cu1384 Cu 0.12000000 0.36000000 0.64705882
  Cu1385 Cu 0.32000000 0.96000000 0.64705882
  Cu1386 Cu 0.74000000 0.22000000 0.64705882
  Cu1387 Cu 0.34000000 0.02000000 0.64705882
  Cu1388 Cu 0.94000000 0.82000000 0.64705882
  Cu1389 Cu 0.54000000 0.62000000 0.64705882
  Cu1390 Cu 0.14000000 0.42000000 0.64705882
  Cu1391 Cu 0.76000000 0.28000000 0.64705882
  Cu1392 Cu 0.36000000 0.08000000 0.64705882
  Cu1393 Cu 0.96000000 0.88000000 0.64705882
  Cu1394 Cu 0.56000000 0.68000000 0.64705882
  Cu1395 Cu 0.16000000 0.48000000 0.64705882
  Cu1396 Cu 0.78000000 0.34000000 0.64705882
  Cu1397 Cu 0.38000000 0.14000000 0.64705882
  Cu1398 Cu 0.98000000 0.94000000 0.64705882
  Cu1399 Cu 0.58000000 0.74000000 0.64705882
  Cu1400 Cu 0.18000000 0.54000000 0.64705882
  Cu1401 Cu 0.76000000 0.08000000 0.64705882
  Cu1402 Cu 0.96000000 0.68000000 0.64705882
  Cu1403 Cu 0.56000000 0.48000000 0.64705882
  Cu1404 Cu 0.16000000 0.28000000 0.64705882
  Cu1405 Cu 0.36000000 0.88000000 0.64705882
  Cu1406 Cu 0.78000000 0.14000000 0.64705882
  Cu1407 Cu 0.98000000 0.74000000 0.64705882
  Cu1408 Cu 0.58000000 0.54000000 0.64705882
  Cu1409 Cu 0.18000000 0.34000000 0.64705882
  Cu1410 Cu 0.38000000 0.94000000 0.64705882
  Cu1411 Cu 0.80000000 0.20000000 0.64705882
  Cu1412 Cu 0.40000000 -0.00000000 0.64705882
  Cu1413 Cu 0.60000000 0.60000000 0.64705882
  Cu1414 Cu 0.20000000 0.40000000 0.64705882
  Cu1415 Cu 0.00000000 0.80000000 0.64705882
  Cu1416 Cu 0.82000000 0.26000000 0.64705882
  Cu1417 Cu 0.42000000 0.06000000 0.64705882
  Cu1418 Cu 0.62000000 0.66000000 0.64705882
  Cu1419 Cu 0.22000000 0.46000000 0.64705882
  Cu1420 Cu 0.02000000 0.86000000 0.64705882
  Cu1421 Cu 0.84000000 0.32000000 0.64705882
  Cu1422 Cu 0.44000000 0.12000000 0.64705882
  Cu1423 Cu 0.64000000 0.72000000 0.64705882
  Cu1424 Cu 0.24000000 0.52000000 0.64705882
  Cu1425 Cu 0.04000000 0.92000000 0.64705882
  Cu1426 Cu 0.82000000 0.06000000 0.64705882
  Cu1427 Cu 0.62000000 0.46000000 0.64705882
  Cu1428 Cu 0.22000000 0.26000000 0.64705882
  Cu1429 Cu 0.42000000 0.86000000 0.64705882
  Cu1430 Cu 0.02000000 0.66000000 0.64705882
  Cu1431 Cu 0.84000000 0.12000000 0.64705882
  Cu1432 Cu 0.64000000 0.52000000 0.64705882
  Cu1433 Cu 0.24000000 0.32000000 0.64705882
  Cu1434 Cu 0.44000000 0.92000000 0.64705882
  Cu1435 Cu 0.04000000 0.72000000 0.64705882
  Cu1436 Cu 0.86000000 0.18000000 0.64705882
  Cu1437 Cu 0.66000000 0.58000000 0.64705882
  Cu1438 Cu 0.26000000 0.38000000 0.64705882
  Cu1439 Cu 0.46000000 0.98000000 0.64705882
  Cu1440 Cu 0.06000000 0.78000000 0.64705882
  Cu1441 Cu 0.88000000 0.24000000 0.64705882
  Cu1442 Cu 0.48000000 0.04000000 0.64705882
  Cu1443 Cu 0.68000000 0.64000000 0.64705882
  Cu1444 Cu 0.28000000 0.44000000 0.64705882
  Cu1445 Cu 0.08000000 0.84000000 0.64705882
  Cu1446 Cu 0.90000000 0.30000000 0.64705882
  Cu1447 Cu 0.50000000 0.10000000 0.64705882
  Cu1448 Cu 0.70000000 0.70000000 0.64705882
  Cu1449 Cu 0.30000000 0.50000000 0.64705882
  Cu1450 Cu 0.10000000 0.90000000 0.64705882
  Cu1451 Cu 0.88000000 0.04000000 0.64705882
  Cu1452 Cu 0.68000000 0.44000000 0.64705882
  Cu1453 Cu 0.28000000 0.24000000 0.64705882
  Cu1454 Cu 0.48000000 0.84000000 0.64705882
  Cu1455 Cu 0.08000000 0.64000000 0.64705882
  Cu1456 Cu 0.90000000 0.10000000 0.64705882
  Cu1457 Cu 0.70000000 0.50000000 0.64705882
  Cu1458 Cu 0.30000000 0.30000000 0.64705882
  Cu1459 Cu 0.50000000 0.90000000 0.64705882
  Cu1460 Cu 0.10000000 0.70000000 0.64705882
  Cu1461 Cu 0.92000000 0.16000000 0.64705882
  Cu1462 Cu 0.72000000 0.56000000 0.64705882
  Cu1463 Cu 0.32000000 0.36000000 0.64705882
  Cu1464 Cu 0.52000000 0.96000000 0.64705882
  Cu1465 Cu 0.12000000 0.76000000 0.64705882
  Cu1466 Cu 0.94000000 0.22000000 0.64705882
  Cu1467 Cu 0.54000000 0.02000000 0.64705882
  Cu1468 Cu 0.74000000 0.62000000 0.64705882
  Cu1469 Cu 0.34000000 0.42000000 0.64705882
  Cu1470 Cu 0.14000000 0.82000000 0.64705882
  Cu1471 Cu 0.96000000 0.28000000 0.64705882
  Cu1472 Cu 0.56000000 0.08000000 0.64705882
  Cu1473 Cu 0.76000000 0.68000000 0.64705882
  Cu1474 Cu 0.36000000 0.48000000 0.64705882
  Cu1475 Cu 0.16000000 0.88000000 0.64705882
  Cu1476 Cu 0.94000000 0.02000000 0.64705882
  Cu1477 Cu 0.74000000 0.42000000 0.64705882
  Cu1478 Cu 0.34000000 0.22000000 0.64705882
  Cu1479 Cu 0.54000000 0.82000000 0.64705882
  Cu1480 Cu 0.14000000 0.62000000 0.64705882
  Cu1481 Cu 0.96000000 0.08000000 0.64705882
  Cu1482 Cu 0.76000000 0.48000000 0.64705882
  Cu1483 Cu 0.36000000 0.28000000 0.64705882
  Cu1484 Cu 0.56000000 0.88000000 0.64705882
  Cu1485 Cu 0.16000000 0.68000000 0.64705882
  Cu1486 Cu 0.98000000 0.14000000 0.64705882
  Cu1487 Cu 0.78000000 0.54000000 0.64705882
  Cu1488 Cu 0.38000000 0.34000000 0.64705882
  Cu1489 Cu 0.58000000 0.94000000 0.64705882
  Cu1490 Cu 0.18000000 0.74000000 0.64705882
  Cu1491 Cu 0.60000000 -0.00000000 0.64705882
  Cu1492 Cu 0.80000000 0.60000000 0.64705882
  Cu1493 Cu 0.40000000 0.40000000 0.64705882
  Cu1494 Cu -0.00000000 0.20000000 0.64705882
  Cu1495 Cu 0.20000000 0.80000000 0.64705882
  Cu1496 Cu 0.62000000 0.06000000 0.64705882
  Cu1497 Cu 0.82000000 0.66000000 0.64705882
  Cu1498 Cu 0.42000000 0.46000000 0.64705882
  Cu1499 Cu 0.02000000 0.26000000 0.64705882
  Cu1500 Cu 0.22000000 0.86000000 0.64705882
  Cu1501 Cu 0.75333333 0.12666667 0.70588235
  Cu1502 Cu 0.95333333 0.72666667 0.70588235
  Cu1503 Cu 0.55333333 0.52666667 0.70588235
  Cu1504 Cu 0.15333333 0.32666667 0.70588235
  Cu1505 Cu 0.35333333 0.92666667 0.70588235
  Cu1506 Cu 0.77333333 0.18666667 0.70588235
  Cu1507 Cu 0.97333333 0.78666667 0.70588235
  Cu1508 Cu 0.57333333 0.58666667 0.70588235
  Cu1509 Cu 0.17333333 0.38666667 0.70588235
  Cu1510 Cu 0.37333333 0.98666667 0.70588235
  Cu1511 Cu 0.79333333 0.24666667 0.70588235
  Cu1512 Cu 0.39333333 0.04666667 0.70588235
  Cu1513 Cu 0.99333333 0.84666667 0.70588235
  Cu1514 Cu 0.59333333 0.64666667 0.70588235
  Cu1515 Cu 0.19333333 0.44666667 0.70588235
  Cu1516 Cu 0.81333333 0.30666667 0.70588235
  Cu1517 Cu 0.41333333 0.10666667 0.70588235
  Cu1518 Cu 0.61333333 0.70666667 0.70588235
  Cu1519 Cu 0.21333333 0.50666667 0.70588235
  Cu1520 Cu 0.01333333 0.90666667 0.70588235
  Cu1521 Cu 0.83333333 0.36666667 0.70588235
  Cu1522 Cu 0.43333333 0.16666667 0.70588235
  Cu1523 Cu 0.63333333 0.76666667 0.70588235
  Cu1524 Cu 0.23333333 0.56666667 0.70588235
  Cu1525 Cu 0.03333333 0.96666667 0.70588235
  Cu1526 Cu 0.81333333 0.10666667 0.70588235
  Cu1527 Cu 0.61333333 0.50666667 0.70588235
  Cu1528 Cu 0.21333333 0.30666667 0.70588235
  Cu1529 Cu 0.41333333 0.90666667 0.70588235
  Cu1530 Cu 0.01333333 0.70666667 0.70588235
  Cu1531 Cu 0.83333333 0.16666667 0.70588235
  Cu1532 Cu 0.63333333 0.56666667 0.70588235
  Cu1533 Cu 0.23333333 0.36666667 0.70588235
  Cu1534 Cu 0.43333333 0.96666667 0.70588235
  Cu1535 Cu 0.03333333 0.76666667 0.70588235
  Cu1536 Cu 0.85333333 0.22666667 0.70588235
  Cu1537 Cu 0.45333333 0.02666667 0.70588235
  Cu1538 Cu 0.65333333 0.62666667 0.70588235
  Cu1539 Cu 0.25333333 0.42666667 0.70588235
  Cu1540 Cu 0.05333333 0.82666667 0.70588235
  Cu1541 Cu 0.87333333 0.28666667 0.70588235
  Cu1542 Cu 0.47333333 0.08666667 0.70588235
  Cu1543 Cu 0.67333333 0.68666667 0.70588235
  Cu1544 Cu 0.27333333 0.48666667 0.70588235
  Cu1545 Cu 0.07333333 0.88666667 0.70588235
  Cu1546 Cu 0.89333333 0.34666667 0.70588235
  Cu1547 Cu 0.49333333 0.14666667 0.70588235
  Cu1548 Cu 0.69333333 0.74666667 0.70588235
  Cu1549 Cu 0.29333333 0.54666667 0.70588235
  Cu1550 Cu 0.09333333 0.94666667 0.70588235
  Cu1551 Cu 0.87333333 0.08666667 0.70588235
  Cu1552 Cu 0.67333333 0.48666667 0.70588235
  Cu1553 Cu 0.27333333 0.28666667 0.70588235
  Cu1554 Cu 0.47333333 0.88666667 0.70588235
  Cu1555 Cu 0.07333333 0.68666667 0.70588235
  Cu1556 Cu 0.89333333 0.14666667 0.70588235
  Cu1557 Cu 0.69333333 0.54666667 0.70588235
  Cu1558 Cu 0.29333333 0.34666667 0.70588235
  Cu1559 Cu 0.49333333 0.94666667 0.70588235
  Cu1560 Cu 0.09333333 0.74666667 0.70588235
  Cu1561 Cu 0.91333333 0.20666667 0.70588235
  Cu1562 Cu 0.51333333 0.00666667 0.70588235
  Cu1563 Cu 0.71333333 0.60666667 0.70588235
  Cu1564 Cu 0.31333333 0.40666667 0.70588235
  Cu1565 Cu 0.11333333 0.80666667 0.70588235
  Cu1566 Cu 0.93333333 0.26666667 0.70588235
  Cu1567 Cu 0.53333333 0.06666667 0.70588235
  Cu1568 Cu 0.73333333 0.66666667 0.70588235
  Cu1569 Cu 0.33333333 0.46666667 0.70588235
  Cu1570 Cu 0.13333333 0.86666667 0.70588235
  Cu1571 Cu 0.95333333 0.32666667 0.70588235
  Cu1572 Cu 0.55333333 0.12666667 0.70588235
  Cu1573 Cu 0.75333333 0.72666667 0.70588235
  Cu1574 Cu 0.35333333 0.52666667 0.70588235
  Cu1575 Cu 0.15333333 0.92666667 0.70588235
  Cu1576 Cu 0.93333333 0.06666667 0.70588235
  Cu1577 Cu 0.73333333 0.46666667 0.70588235
  Cu1578 Cu 0.33333333 0.26666667 0.70588235
  Cu1579 Cu 0.53333333 0.86666667 0.70588235
  Cu1580 Cu 0.13333333 0.66666667 0.70588235
  Cu1581 Cu 0.95333333 0.12666667 0.70588235
  Cu1582 Cu 0.75333333 0.52666667 0.70588235
  Cu1583 Cu 0.35333333 0.32666667 0.70588235
  Cu1584 Cu 0.55333333 0.92666667 0.70588235
  Cu1585 Cu 0.15333333 0.72666667 0.70588235
  Cu1586 Cu 0.97333333 0.18666667 0.70588235
  Cu1587 Cu 0.77333333 0.58666667 0.70588235
  Cu1588 Cu 0.37333333 0.38666667 0.70588235
  Cu1589 Cu 0.57333333 0.98666667 0.70588235
  Cu1590 Cu 0.17333333 0.78666667 0.70588235
  Cu1591 Cu 0.99333333 0.24666667 0.70588235
  Cu1592 Cu 0.59333333 0.04666667 0.70588235
  Cu1593 Cu 0.79333333 0.64666667 0.70588235
  Cu1594 Cu 0.39333333 0.44666667 0.70588235
  Cu1595 Cu 0.19333333 0.84666667 0.70588235
  Cu1596 Cu 0.61333333 0.10666667 0.70588235
  Cu1597 Cu 0.81333333 0.70666667 0.70588235
  Cu1598 Cu 0.41333333 0.50666667 0.70588235
  Cu1599 Cu 0.01333333 0.30666667 0.70588235
  Cu1600 Cu 0.21333333 0.90666667 0.70588235
  Cu1601 Cu 0.99333333 0.04666667 0.70588235
  Cu1602 Cu 0.79333333 0.44666667 0.70588235
  Cu1603 Cu 0.39333333 0.24666667 0.70588235
  Cu1604 Cu 0.59333333 0.84666667 0.70588235
  Cu1605 Cu 0.19333333 0.64666667 0.70588235
  Cu1606 Cu 0.81333333 0.50666667 0.70588235
  Cu1607 Cu 0.41333333 0.30666667 0.70588235
  Cu1608 Cu 0.01333333 0.10666667 0.70588235
  Cu1609 Cu 0.61333333 0.90666667 0.70588235
  Cu1610 Cu 0.21333333 0.70666667 0.70588235
  Cu1611 Cu 0.83333333 0.56666667 0.70588235
  Cu1612 Cu 0.43333333 0.36666667 0.70588235
  Cu1613 Cu 0.03333333 0.16666667 0.70588235
  Cu1614 Cu 0.63333333 0.96666667 0.70588235
  Cu1615 Cu 0.23333333 0.76666667 0.70588235
  Cu1616 Cu 0.65333333 0.02666667 0.70588235
  Cu1617 Cu 0.85333333 0.62666667 0.70588235
  Cu1618 Cu 0.45333333 0.42666667 0.70588235
  Cu1619 Cu 0.05333333 0.22666667 0.70588235
  Cu1620 Cu 0.25333333 0.82666667 0.70588235
  Cu1621 Cu 0.67333333 0.08666667 0.70588235
  Cu1622 Cu 0.87333333 0.68666667 0.70588235
  Cu1623 Cu 0.47333333 0.48666667 0.70588235
  Cu1624 Cu 0.07333333 0.28666667 0.70588235
  Cu1625 Cu 0.27333333 0.88666667 0.70588235
  Cu1626 Cu 0.72666667 0.11333333 0.76470588
  Cu1627 Cu 0.92666667 0.71333333 0.76470588
  Cu1628 Cu 0.52666667 0.51333333 0.76470588
  Cu1629 Cu 0.12666667 0.31333333 0.76470588
  Cu1630 Cu 0.32666667 0.91333333 0.76470588
  Cu1631 Cu 0.74666667 0.17333333 0.76470588
  Cu1632 Cu 0.94666667 0.77333333 0.76470588
  Cu1633 Cu 0.54666667 0.57333333 0.76470588
  Cu1634 Cu 0.14666667 0.37333333 0.76470588
  Cu1635 Cu 0.34666667 0.97333333 0.76470588
  Cu1636 Cu 0.76666667 0.23333333 0.76470588
  Cu1637 Cu 0.36666667 0.03333333 0.76470588
  Cu1638 Cu 0.96666667 0.83333333 0.76470588
  Cu1639 Cu 0.56666667 0.63333333 0.76470588
  Cu1640 Cu 0.16666667 0.43333333 0.76470588
  Cu1641 Cu 0.78666667 0.29333333 0.76470588
  Cu1642 Cu 0.38666667 0.09333333 0.76470588
  Cu1643 Cu 0.98666667 0.89333333 0.76470588
  Cu1644 Cu 0.58666667 0.69333333 0.76470588
  Cu1645 Cu 0.18666667 0.49333333 0.76470588
  Cu1646 Cu 0.80666667 0.35333333 0.76470588
  Cu1647 Cu 0.40666667 0.15333333 0.76470588
  Cu1648 Cu 0.60666667 0.75333333 0.76470588
  Cu1649 Cu 0.20666667 0.55333333 0.76470588
  Cu1650 Cu 0.00666667 0.95333333 0.76470588
  Cu1651 Cu 0.78666667 0.09333333 0.76470588
  Cu1652 Cu 0.98666667 0.69333333 0.76470588
  Cu1653 Cu 0.58666667 0.49333333 0.76470588
  Cu1654 Cu 0.18666667 0.29333333 0.76470588
  Cu1655 Cu 0.38666667 0.89333333 0.76470588
  Cu1656 Cu 0.80666667 0.15333333 0.76470588
  Cu1657 Cu 0.60666667 0.55333333 0.76470588
  Cu1658 Cu 0.20666667 0.35333333 0.76470588
  Cu1659 Cu 0.40666667 0.95333333 0.76470588
  Cu1660 Cu 0.00666667 0.75333333 0.76470588
  Cu1661 Cu 0.82666667 0.21333333 0.76470588
  Cu1662 Cu 0.42666667 0.01333333 0.76470588
  Cu1663 Cu 0.62666667 0.61333333 0.76470588
  Cu1664 Cu 0.22666667 0.41333333 0.76470588
  Cu1665 Cu 0.02666667 0.81333333 0.76470588
  Cu1666 Cu 0.84666667 0.27333333 0.76470588
  Cu1667 Cu 0.44666667 0.07333333 0.76470588
  Cu1668 Cu 0.64666667 0.67333333 0.76470588
  Cu1669 Cu 0.24666667 0.47333333 0.76470588
  Cu1670 Cu 0.04666667 0.87333333 0.76470588
  Cu1671 Cu 0.86666667 0.33333333 0.76470588
  Cu1672 Cu 0.46666667 0.13333333 0.76470588
  Cu1673 Cu 0.66666667 0.73333333 0.76470588
  Cu1674 Cu 0.26666667 0.53333333 0.76470588
  Cu1675 Cu 0.06666667 0.93333333 0.76470588
  Cu1676 Cu 0.84666667 0.07333333 0.76470588
  Cu1677 Cu 0.64666667 0.47333333 0.76470588
  Cu1678 Cu 0.24666667 0.27333333 0.76470588
  Cu1679 Cu 0.44666667 0.87333333 0.76470588
  Cu1680 Cu 0.04666667 0.67333333 0.76470588
  Cu1681 Cu 0.86666667 0.13333333 0.76470588
  Cu1682 Cu 0.66666667 0.53333333 0.76470588
  Cu1683 Cu 0.26666667 0.33333333 0.76470588
  Cu1684 Cu 0.46666667 0.93333333 0.76470588
  Cu1685 Cu 0.06666667 0.73333333 0.76470588
  Cu1686 Cu 0.88666667 0.19333333 0.76470588
  Cu1687 Cu 0.68666667 0.59333333 0.76470588
  Cu1688 Cu 0.28666667 0.39333333 0.76470588
  Cu1689 Cu 0.48666667 0.99333333 0.76470588
  Cu1690 Cu 0.08666667 0.79333333 0.76470588
  Cu1691 Cu 0.90666667 0.25333333 0.76470588
  Cu1692 Cu 0.50666667 0.05333333 0.76470588
  Cu1693 Cu 0.70666667 0.65333333 0.76470588
  Cu1694 Cu 0.30666667 0.45333333 0.76470588
  Cu1695 Cu 0.10666667 0.85333333 0.76470588
  Cu1696 Cu 0.92666667 0.31333333 0.76470588
  Cu1697 Cu 0.52666667 0.11333333 0.76470588
  Cu1698 Cu 0.72666667 0.71333333 0.76470588
  Cu1699 Cu 0.32666667 0.51333333 0.76470588
  Cu1700 Cu 0.12666667 0.91333333 0.76470588
  Cu1701 Cu 0.90666667 0.05333333 0.76470588
  Cu1702 Cu 0.70666667 0.45333333 0.76470588
  Cu1703 Cu 0.30666667 0.25333333 0.76470588
  Cu1704 Cu 0.50666667 0.85333333 0.76470588
  Cu1705 Cu 0.10666667 0.65333333 0.76470588
  Cu1706 Cu 0.92666667 0.11333333 0.76470588
  Cu1707 Cu 0.72666667 0.51333333 0.76470588
  Cu1708 Cu 0.32666667 0.31333333 0.76470588
  Cu1709 Cu 0.52666667 0.91333333 0.76470588
  Cu1710 Cu 0.12666667 0.71333333 0.76470588
  Cu1711 Cu 0.94666667 0.17333333 0.76470588
  Cu1712 Cu 0.74666667 0.57333333 0.76470588
  Cu1713 Cu 0.34666667 0.37333333 0.76470588
  Cu1714 Cu 0.54666667 0.97333333 0.76470588
  Cu1715 Cu 0.14666667 0.77333333 0.76470588
  Cu1716 Cu 0.96666667 0.23333333 0.76470588
  Cu1717 Cu 0.56666667 0.03333333 0.76470588
  Cu1718 Cu 0.76666667 0.63333333 0.76470588
  Cu1719 Cu 0.36666667 0.43333333 0.76470588
  Cu1720 Cu 0.16666667 0.83333333 0.76470588
  Cu1721 Cu 0.98666667 0.29333333 0.76470588
  Cu1722 Cu 0.58666667 0.09333333 0.76470588
  Cu1723 Cu 0.78666667 0.69333333 0.76470588
  Cu1724 Cu 0.38666667 0.49333333 0.76470588
  Cu1725 Cu 0.18666667 0.89333333 0.76470588
  Cu1726 Cu 0.96666667 0.03333333 0.76470588
  Cu1727 Cu 0.76666667 0.43333333 0.76470588
  Cu1728 Cu 0.36666667 0.23333333 0.76470588
  Cu1729 Cu 0.56666667 0.83333333 0.76470588
  Cu1730 Cu 0.16666667 0.63333333 0.76470588
  Cu1731 Cu 0.98666667 0.09333333 0.76470588
  Cu1732 Cu 0.78666667 0.49333333 0.76470588
  Cu1733 Cu 0.38666667 0.29333333 0.76470588
  Cu1734 Cu 0.58666667 0.89333333 0.76470588
  Cu1735 Cu 0.18666667 0.69333333 0.76470588
  Cu1736 Cu 0.80666667 0.55333333 0.76470588
  Cu1737 Cu 0.40666667 0.35333333 0.76470588
  Cu1738 Cu 0.00666667 0.15333333 0.76470588
  Cu1739 Cu 0.60666667 0.95333333 0.76470588
  Cu1740 Cu 0.20666667 0.75333333 0.76470588
  Cu1741 Cu 0.62666667 0.01333333 0.76470588
  Cu1742 Cu 0.82666667 0.61333333 0.76470588
  Cu1743 Cu 0.42666667 0.41333333 0.76470588
  Cu1744 Cu 0.02666667 0.21333333 0.76470588
  Cu1745 Cu 0.22666667 0.81333333 0.76470588
  Cu1746 Cu 0.64666667 0.07333333 0.76470588
  Cu1747 Cu 0.84666667 0.67333333 0.76470588
  Cu1748 Cu 0.44666667 0.47333333 0.76470588
  Cu1749 Cu 0.04666667 0.27333333 0.76470588
  Cu1750 Cu 0.24666667 0.87333333 0.76470588
  Cu1751 Cu 0.75333333 0.12666667 0.82352941
  Cu1752 Cu 0.95333333 0.72666667 0.82352941
  Cu1753 Cu 0.55333333 0.52666667 0.82352941
  Cu1754 Cu 0.15333333 0.32666667 0.82352941
  Cu1755 Cu 0.35333333 0.92666667 0.82352941
  Cu1756 Cu 0.77333333 0.18666667 0.82352941
  Cu1757 Cu 0.97333333 0.78666667 0.82352941
  Cu1758 Cu 0.57333333 0.58666667 0.82352941
  Cu1759 Cu 0.17333333 0.38666667 0.82352941
  Cu1760 Cu 0.37333333 0.98666667 0.82352941
  Cu1761 Cu 0.79333333 0.24666667 0.82352941
  Cu1762 Cu 0.39333333 0.04666667 0.82352941
  Cu1763 Cu 0.99333333 0.84666667 0.82352941
  Cu1764 Cu 0.59333333 0.64666667 0.82352941
  Cu1765 Cu 0.19333333 0.44666667 0.82352941
  Cu1766 Cu 0.81333333 0.30666667 0.82352941
  Cu1767 Cu 0.41333333 0.10666667 0.82352941
  Cu1768 Cu 0.61333333 0.70666667 0.82352941
  Cu1769 Cu 0.21333333 0.50666667 0.82352941
  Cu1770 Cu 0.01333333 0.90666667 0.82352941
  Cu1771 Cu 0.83333333 0.36666667 0.82352941
  Cu1772 Cu 0.43333333 0.16666667 0.82352941
  Cu1773 Cu 0.63333333 0.76666667 0.82352941
  Cu1774 Cu 0.23333333 0.56666667 0.82352941
  Cu1775 Cu 0.03333333 0.96666667 0.82352941
  Cu1776 Cu 0.81333333 0.10666667 0.82352941
  Cu1777 Cu 0.61333333 0.50666667 0.82352941
  Cu1778 Cu 0.21333333 0.30666667 0.82352941
  Cu1779 Cu 0.41333333 0.90666667 0.82352941
  Cu1780 Cu 0.01333333 0.70666667 0.82352941
  Cu1781 Cu 0.83333333 0.16666667 0.82352941
  Cu1782 Cu 0.63333333 0.56666667 0.82352941
  Cu1783 Cu 0.23333333 0.36666667 0.82352941
  Cu1784 Cu 0.43333333 0.96666667 0.82352941
  Cu1785 Cu 0.03333333 0.76666667 0.82352941
  Cu1786 Cu 0.85333333 0.22666667 0.82352941
  Cu1787 Cu 0.45333333 0.02666667 0.82352941
  Cu1788 Cu 0.65333333 0.62666667 0.82352941
  Cu1789 Cu 0.25333333 0.42666667 0.82352941
  Cu1790 Cu 0.05333333 0.82666667 0.82352941
  Cu1791 Cu 0.87333333 0.28666667 0.82352941
  Cu1792 Cu 0.47333333 0.08666667 0.82352941
  Cu1793 Cu 0.67333333 0.68666667 0.82352941
  Cu1794 Cu 0.27333333 0.48666667 0.82352941
  Cu1795 Cu 0.07333333 0.88666667 0.82352941
  Cu1796 Cu 0.89333333 0.34666667 0.82352941
  Cu1797 Cu 0.49333333 0.14666667 0.82352941
  Cu1798 Cu 0.69333333 0.74666667 0.82352941
  Cu1799 Cu 0.29333333 0.54666667 0.82352941
  Cu1800 Cu 0.09333333 0.94666667 0.82352941
  Cu1801 Cu 0.87333333 0.08666667 0.82352941
  Cu1802 Cu 0.67333333 0.48666667 0.82352941
  Cu1803 Cu 0.27333333 0.28666667 0.82352941
  Cu1804 Cu 0.47333333 0.88666667 0.82352941
  Cu1805 Cu 0.07333333 0.68666667 0.82352941
  Cu1806 Cu 0.89333333 0.14666667 0.82352941
  Cu1807 Cu 0.69333333 0.54666667 0.82352941
  Cu1808 Cu 0.29333333 0.34666667 0.82352941
  Cu1809 Cu 0.49333333 0.94666667 0.82352941
  Cu1810 Cu 0.09333333 0.74666667 0.82352941
  Cu1811 Cu 0.91333333 0.20666667 0.82352941
  Cu1812 Cu 0.51333333 0.00666667 0.82352941
  Cu1813 Cu 0.71333333 0.60666667 0.82352941
  Cu1814 Cu 0.31333333 0.40666667 0.82352941
  Cu1815 Cu 0.11333333 0.80666667 0.82352941
  Cu1816 Cu 0.93333333 0.26666667 0.82352941
  Cu1817 Cu 0.53333333 0.06666667 0.82352941
  Cu1818 Cu 0.73333333 0.66666667 0.82352941
  Cu1819 Cu 0.33333333 0.46666667 0.82352941
  Cu1820 Cu 0.13333333 0.86666667 0.82352941
  Cu1821 Cu 0.95333333 0.32666667 0.82352941
  Cu1822 Cu 0.55333333 0.12666667 0.82352941
  Cu1823 Cu 0.75333333 0.72666667 0.82352941
  Cu1824 Cu 0.35333333 0.52666667 0.82352941
  Cu1825 Cu 0.15333333 0.92666667 0.82352941
  Cu1826 Cu 0.93333333 0.06666667 0.82352941
  Cu1827 Cu 0.73333333 0.46666667 0.82352941
  Cu1828 Cu 0.33333333 0.26666667 0.82352941
  Cu1829 Cu 0.53333333 0.86666667 0.82352941
  Cu1830 Cu 0.13333333 0.66666667 0.82352941
  Cu1831 Cu 0.95333333 0.12666667 0.82352941
  Cu1832 Cu 0.75333333 0.52666667 0.82352941
  Cu1833 Cu 0.35333333 0.32666667 0.82352941
  Cu1834 Cu 0.55333333 0.92666667 0.82352941
  Cu1835 Cu 0.15333333 0.72666667 0.82352941
  Cu1836 Cu 0.97333333 0.18666667 0.82352941
  Cu1837 Cu 0.77333333 0.58666667 0.82352941
  Cu1838 Cu 0.37333333 0.38666667 0.82352941
  Cu1839 Cu 0.57333333 0.98666667 0.82352941
  Cu1840 Cu 0.17333333 0.78666667 0.82352941
  Cu1841 Cu 0.99333333 0.24666667 0.82352941
  Cu1842 Cu 0.59333333 0.04666667 0.82352941
  Cu1843 Cu 0.79333333 0.64666667 0.82352941
  Cu1844 Cu 0.39333333 0.44666667 0.82352941
  Cu1845 Cu 0.19333333 0.84666667 0.82352941
  Cu1846 Cu 0.61333333 0.10666667 0.82352941
  Cu1847 Cu 0.81333333 0.70666667 0.82352941
  Cu1848 Cu 0.41333333 0.50666667 0.82352941
  Cu1849 Cu 0.01333333 0.30666667 0.82352941
  Cu1850 Cu 0.21333333 0.90666667 0.82352941
  Cu1851 Cu 0.99333333 0.04666667 0.82352941
  Cu1852 Cu 0.79333333 0.44666667 0.82352941
  Cu1853 Cu 0.39333333 0.24666667 0.82352941
  Cu1854 Cu 0.59333333 0.84666667 0.82352941
  Cu1855 Cu 0.19333333 0.64666667 0.82352941
  Cu1856 Cu 0.81333333 0.50666667 0.82352941
  Cu1857 Cu 0.41333333 0.30666667 0.82352941
  Cu1858 Cu 0.01333333 0.10666667 0.82352941
  Cu1859 Cu 0.61333333 0.90666667 0.82352941
  Cu1860 Cu 0.21333333 0.70666667 0.82352941
  Cu1861 Cu 0.83333333 0.56666667 0.82352941
  Cu1862 Cu 0.43333333 0.36666667 0.82352941
  Cu1863 Cu 0.03333333 0.16666667 0.82352941
  Cu1864 Cu 0.63333333 0.96666667 0.82352941
  Cu1865 Cu 0.23333333 0.76666667 0.82352941
  Cu1866 Cu 0.65333333 0.02666667 0.82352941
  Cu1867 Cu 0.85333333 0.62666667 0.82352941
  Cu1868 Cu 0.45333333 0.42666667 0.82352941
  Cu1869 Cu 0.05333333 0.22666667 0.82352941
  Cu1870 Cu 0.25333333 0.82666667 0.82352941
  Cu1871 Cu 0.67333333 0.08666667 0.82352941
  Cu1872 Cu 0.87333333 0.68666667 0.82352941
  Cu1873 Cu 0.47333333 0.48666667 0.82352941
  Cu1874 Cu 0.07333333 0.28666667 0.82352941
  Cu1875 Cu 0.27333333 0.88666667 0.82352941
  Cu1876 Cu 0.70000000 0.10000000 0.88235294
  Cu1877 Cu 0.90000000 0.70000000 0.88235294
  Cu1878 Cu 0.50000000 0.50000000 0.88235294
  Cu1879 Cu 0.10000000 0.30000000 0.88235294
  Cu1880 Cu 0.30000000 0.90000000 0.88235294
  Cu1881 Cu 0.72000000 0.16000000 0.88235294
  Cu1882 Cu 0.92000000 0.76000000 0.88235294
  Cu1883 Cu 0.52000000 0.56000000 0.88235294
  Cu1884 Cu 0.12000000 0.36000000 0.88235294
  Cu1885 Cu 0.32000000 0.96000000 0.88235294
  Cu1886 Cu 0.74000000 0.22000000 0.88235294
  Cu1887 Cu 0.34000000 0.02000000 0.88235294
  Cu1888 Cu 0.94000000 0.82000000 0.88235294
  Cu1889 Cu 0.54000000 0.62000000 0.88235294
  Cu1890 Cu 0.14000000 0.42000000 0.88235294
  Cu1891 Cu 0.76000000 0.28000000 0.88235294
  Cu1892 Cu 0.36000000 0.08000000 0.88235294
  Cu1893 Cu 0.96000000 0.88000000 0.88235294
  Cu1894 Cu 0.56000000 0.68000000 0.88235294
  Cu1895 Cu 0.16000000 0.48000000 0.88235294
  Cu1896 Cu 0.78000000 0.34000000 0.88235294
  Cu1897 Cu 0.38000000 0.14000000 0.88235294
  Cu1898 Cu 0.98000000 0.94000000 0.88235294
  Cu1899 Cu 0.58000000 0.74000000 0.88235294
  Cu1900 Cu 0.18000000 0.54000000 0.88235294
  Cu1901 Cu 0.76000000 0.08000000 0.88235294
  Cu1902 Cu 0.96000000 0.68000000 0.88235294
  Cu1903 Cu 0.56000000 0.48000000 0.88235294
  Cu1904 Cu 0.16000000 0.28000000 0.88235294
  Cu1905 Cu 0.36000000 0.88000000 0.88235294
  Cu1906 Cu 0.78000000 0.14000000 0.88235294
  Cu1907 Cu 0.98000000 0.74000000 0.88235294
  Cu1908 Cu 0.58000000 0.54000000 0.88235294
  Cu1909 Cu 0.18000000 0.34000000 0.88235294
  Cu1910 Cu 0.38000000 0.94000000 0.88235294
  Cu1911 Cu 0.80000000 0.20000000 0.88235294
  Cu1912 Cu 0.40000000 -0.00000000 0.88235294
  Cu1913 Cu 0.60000000 0.60000000 0.88235294
  Cu1914 Cu 0.20000000 0.40000000 0.88235294
  Cu1915 Cu 0.00000000 0.80000000 0.88235294
  Cu1916 Cu 0.82000000 0.26000000 0.88235294
  Cu1917 Cu 0.42000000 0.06000000 0.88235294
  Cu1918 Cu 0.62000000 0.66000000 0.88235294
  Cu1919 Cu 0.22000000 0.46000000 0.88235294
  Cu1920 Cu 0.02000000 0.86000000 0.88235294
  Cu1921 Cu 0.84000000 0.32000000 0.88235294
  Cu1922 Cu 0.44000000 0.12000000 0.88235294
  Cu1923 Cu 0.64000000 0.72000000 0.88235294
  Cu1924 Cu 0.24000000 0.52000000 0.88235294
  Cu1925 Cu 0.04000000 0.92000000 0.88235294
  Cu1926 Cu 0.82000000 0.06000000 0.88235294
  Cu1927 Cu 0.62000000 0.46000000 0.88235294
  Cu1928 Cu 0.22000000 0.26000000 0.88235294
  Cu1929 Cu 0.42000000 0.86000000 0.88235294
  Cu1930 Cu 0.02000000 0.66000000 0.88235294
  Cu1931 Cu 0.84000000 0.12000000 0.88235294
  Cu1932 Cu 0.64000000 0.52000000 0.88235294
  Cu1933 Cu 0.24000000 0.32000000 0.88235294
  Cu1934 Cu 0.44000000 0.92000000 0.88235294
  Cu1935 Cu 0.04000000 0.72000000 0.88235294
  Cu1936 Cu 0.86000000 0.18000000 0.88235294
  Cu1937 Cu 0.66000000 0.58000000 0.88235294
  Cu1938 Cu 0.26000000 0.38000000 0.88235294
  Cu1939 Cu 0.46000000 0.98000000 0.88235294
  Cu1940 Cu 0.06000000 0.78000000 0.88235294
  Cu1941 Cu 0.88000000 0.24000000 0.88235294
  Cu1942 Cu 0.48000000 0.04000000 0.88235294
  Cu1943 Cu 0.68000000 0.64000000 0.88235294
  Cu1944 Cu 0.28000000 0.44000000 0.88235294
  Cu1945 Cu 0.08000000 0.84000000 0.88235294
  Cu1946 Cu 0.90000000 0.30000000 0.88235294
  Cu1947 Cu 0.50000000 0.10000000 0.88235294
  Cu1948 Cu 0.70000000 0.70000000 0.88235294
  Cu1949 Cu 0.30000000 0.50000000 0.88235294
  Cu1950 Cu 0.10000000 0.90000000 0.88235294
  Cu1951 Cu 0.88000000 0.04000000 0.88235294
  Cu1952 Cu 0.68000000 0.44000000 0.88235294
  Cu1953 Cu 0.28000000 0.24000000 0.88235294
  Cu1954 Cu 0.48000000 0.84000000 0.88235294
  Cu1955 Cu 0.08000000 0.64000000 0.88235294
  Cu1956 Cu 0.90000000 0.10000000 0.88235294
  Cu1957 Cu 0.70000000 0.50000000 0.88235294
  Cu1958 Cu 0.30000000 0.30000000 0.88235294
  Cu1959 Cu 0.50000000 0.90000000 0.88235294
  Cu1960 Cu 0.10000000 0.70000000 0.88235294
  Cu1961 Cu 0.92000000 0.16000000 0.88235294
  Cu1962 Cu 0.72000000 0.56000000 0.88235294
  Cu1963 Cu 0.32000000 0.36000000 0.88235294
  Cu1964 Cu 0.52000000 0.96000000 0.88235294
  Cu1965 Cu 0.12000000 0.76000000 0.88235294
  Cu1966 Cu 0.94000000 0.22000000 0.88235294
  Cu1967 Cu 0.54000000 0.02000000 0.88235294
  Cu1968 Cu 0.74000000 0.62000000 0.88235294
  Cu1969 Cu 0.34000000 0.42000000 0.88235294
  Cu1970 Cu 0.14000000 0.82000000 0.88235294
  Cu1971 Cu 0.96000000 0.28000000 0.88235294
  Cu1972 Cu 0.56000000 0.08000000 0.88235294
  Cu1973 Cu 0.76000000 0.68000000 0.88235294
  Cu1974 Cu 0.36000000 0.48000000 0.88235294
  Cu1975 Cu 0.16000000 0.88000000 0.88235294
  Cu1976 Cu 0.94000000 0.02000000 0.88235294
  Cu1977 Cu 0.74000000 0.42000000 0.88235294
  Cu1978 Cu 0.34000000 0.22000000 0.88235294
  Cu1979 Cu 0.54000000 0.82000000 0.88235294
  Cu1980 Cu 0.14000000 0.62000000 0.88235294
  Cu1981 Cu 0.96000000 0.08000000 0.88235294
  Cu1982 Cu 0.76000000 0.48000000 0.88235294
  Cu1983 Cu 0.36000000 0.28000000 0.88235294
  Cu1984 Cu 0.56000000 0.88000000 0.88235294
  Cu1985 Cu 0.16000000 0.68000000 0.88235294
  Cu1986 Cu 0.98000000 0.14000000 0.88235294
  Cu1987 Cu 0.78000000 0.54000000 0.88235294
  Cu1988 Cu 0.38000000 0.34000000 0.88235294
  Cu1989 Cu 0.58000000 0.94000000 0.88235294
  Cu1990 Cu 0.18000000 0.74000000 0.88235294
  Cu1991 Cu 0.60000000 -0.00000000 0.88235294
  Cu1992 Cu 0.80000000 0.60000000 0.88235294
  Cu1993 Cu 0.40000000 0.40000000 0.88235294
  Cu1994 Cu -0.00000000 0.20000000 0.88235294
  Cu1995 Cu 0.20000000 0.80000000 0.88235294
  Cu1996 Cu 0.62000000 0.06000000 0.88235294
  Cu1997 Cu 0.82000000 0.66000000 0.88235294
  Cu1998 Cu 0.42000000 0.46000000 0.88235294
  Cu1999 Cu 0.02000000 0.26000000 0.88235294
  Cu2000 Cu 0.22000000 0.86000000 0.88235294
  Cu2001 Cu 0.72666667 0.11333333 0.94117647
  Cu2002 Cu 0.92666667 0.71333333 0.94117647
  Cu2003 Cu 0.52666667 0.51333333 0.94117647
  Cu2004 Cu 0.12666667 0.31333333 0.94117647
  Cu2005 Cu 0.32666667 0.91333333 0.94117647
  Cu2006 Cu 0.74666667 0.17333333 0.94117647
  Cu2007 Cu 0.94666667 0.77333333 0.94117647
  Cu2008 Cu 0.54666667 0.57333333 0.94117647
  Cu2009 Cu 0.14666667 0.37333333 0.94117647
  Cu2010 Cu 0.34666667 0.97333333 0.94117647
  Cu2011 Cu 0.76666667 0.23333333 0.94117647
  Cu2012 Cu 0.36666667 0.03333333 0.94117647
  Cu2013 Cu 0.96666667 0.83333333 0.94117647
  Cu2014 Cu 0.56666667 0.63333333 0.94117647
  Cu2015 Cu 0.16666667 0.43333333 0.94117647
  Cu2016 Cu 0.78666667 0.29333333 0.94117647
  Cu2017 Cu 0.38666667 0.09333333 0.94117647
  Cu2018 Cu 0.98666667 0.89333333 0.94117647
  Cu2019 Cu 0.58666667 0.69333333 0.94117647
  Cu2020 Cu 0.18666667 0.49333333 0.94117647
  Cu2021 Cu 0.80666667 0.35333333 0.94117647
  Cu2022 Cu 0.40666667 0.15333333 0.94117647
  Cu2023 Cu 0.60666667 0.75333333 0.94117647
  Cu2024 Cu 0.20666667 0.55333333 0.94117647
  Cu2025 Cu 0.00666667 0.95333333 0.94117647
  Cu2026 Cu 0.78666667 0.09333333 0.94117647
  Cu2027 Cu 0.98666667 0.69333333 0.94117647
  Cu2028 Cu 0.58666667 0.49333333 0.94117647
  Cu2029 Cu 0.18666667 0.29333333 0.94117647
  Cu2030 Cu 0.38666667 0.89333333 0.94117647
  Cu2031 Cu 0.80666667 0.15333333 0.94117647
  Cu2032 Cu 0.60666667 0.55333333 0.94117647
  Cu2033 Cu 0.20666667 0.35333333 0.94117647
  Cu2034 Cu 0.40666667 0.95333333 0.94117647
  Cu2035 Cu 0.00666667 0.75333333 0.94117647
  Cu2036 Cu 0.82666667 0.21333333 0.94117647
  Cu2037 Cu 0.42666667 0.01333333 0.94117647
  Cu2038 Cu 0.62666667 0.61333333 0.94117647
  Cu2039 Cu 0.22666667 0.41333333 0.94117647
  Cu2040 Cu 0.02666667 0.81333333 0.94117647
  Cu2041 Cu 0.84666667 0.27333333 0.94117647
  Cu2042 Cu 0.44666667 0.07333333 0.94117647
  Cu2043 Cu 0.64666667 0.67333333 0.94117647
  Cu2044 Cu 0.24666667 0.47333333 0.94117647
  Cu2045 Cu 0.04666667 0.87333333 0.94117647
  Cu2046 Cu 0.86666667 0.33333333 0.94117647
  Cu2047 Cu 0.46666667 0.13333333 0.94117647
  Cu2048 Cu 0.66666667 0.73333333 0.94117647
  Cu2049 Cu 0.26666667 0.53333333 0.94117647
  Cu2050 Cu 0.06666667 0.93333333 0.94117647
  Cu2051 Cu 0.84666667 0.07333333 0.94117647
  Cu2052 Cu 0.64666667 0.47333333 0.94117647
  Cu2053 Cu 0.24666667 0.27333333 0.94117647
  Cu2054 Cu 0.44666667 0.87333333 0.94117647
  Cu2055 Cu 0.04666667 0.67333333 0.94117647
  Cu2056 Cu 0.86666667 0.13333333 0.94117647
  Cu2057 Cu 0.66666667 0.53333333 0.94117647
  Cu2058 Cu 0.26666667 0.33333333 0.94117647
  Cu2059 Cu 0.46666667 0.93333333 0.94117647
  Cu2060 Cu 0.06666667 0.73333333 0.94117647
  Cu2061 Cu 0.88666667 0.19333333 0.94117647
  Cu2062 Cu 0.68666667 0.59333333 0.94117647
  Cu2063 Cu 0.28666667 0.39333333 0.94117647
  Cu2064 Cu 0.48666667 0.99333333 0.94117647
  Cu2065 Cu 0.08666667 0.79333333 0.94117647
  Cu2066 Cu 0.90666667 0.25333333 0.94117647
  Cu2067 Cu 0.50666667 0.05333333 0.94117647
  Cu2068 Cu 0.70666667 0.65333333 0.94117647
  Cu2069 Cu 0.30666667 0.45333333 0.94117647
  Cu2070 Cu 0.10666667 0.85333333 0.94117647
  Cu2071 Cu 0.92666667 0.31333333 0.94117647
  Cu2072 Cu 0.52666667 0.11333333 0.94117647
  Cu2073 Cu 0.72666667 0.71333333 0.94117647
  Cu2074 Cu 0.32666667 0.51333333 0.94117647
  Cu2075 Cu 0.12666667 0.91333333 0.94117647
  Cu2076 Cu 0.90666667 0.05333333 0.94117647
  Cu2077 Cu 0.70666667 0.45333333 0.94117647
  Cu2078 Cu 0.30666667 0.25333333 0.94117647
  Cu2079 Cu 0.50666667 0.85333333 0.94117647
  Cu2080 Cu 0.10666667 0.65333333 0.94117647
  Cu2081 Cu 0.92666667 0.11333333 0.94117647
  Cu2082 Cu 0.72666667 0.51333333 0.94117647
  Cu2083 Cu 0.32666667 0.31333333 0.94117647
  Cu2084 Cu 0.52666667 0.91333333 0.94117647
  Cu2085 Cu 0.12666667 0.71333333 0.94117647
  Cu2086 Cu 0.94666667 0.17333333 0.94117647
  Cu2087 Cu 0.74666667 0.57333333 0.94117647
  Cu2088 Cu 0.34666667 0.37333333 0.94117647
  Cu2089 Cu 0.54666667 0.97333333 0.94117647
  Cu2090 Cu 0.14666667 0.77333333 0.94117647
  Cu2091 Cu 0.96666667 0.23333333 0.94117647
  Cu2092 Cu 0.56666667 0.03333333 0.94117647
  Cu2093 Cu 0.76666667 0.63333333 0.94117647
  Cu2094 Cu 0.36666667 0.43333333 0.94117647
  Cu2095 Cu 0.16666667 0.83333333 0.94117647
  Cu2096 Cu 0.98666667 0.29333333 0.94117647
  Cu2097 Cu 0.58666667 0.09333333 0.94117647
  Cu2098 Cu 0.78666667 0.69333333 0.94117647
  Cu2099 Cu 0.38666667 0.49333333 0.94117647
  Cu2100 Cu 0.18666667 0.89333333 0.94117647
  Cu2101 Cu 0.96666667 0.03333333 0.94117647
  Cu2102 Cu 0.76666667 0.43333333 0.94117647
  Cu2103 Cu 0.36666667 0.23333333 0.94117647
  Cu2104 Cu 0.56666667 0.83333333 0.94117647
  Cu2105 Cu 0.16666667 0.63333333 0.94117647
  Cu2106 Cu 0.98666667 0.09333333 0.94117647
  Cu2107 Cu 0.78666667 0.49333333 0.94117647
  Cu2108 Cu 0.38666667 0.29333333 0.94117647
  Cu2109 Cu 0.58666667 0.89333333 0.94117647
  Cu2110 Cu 0.18666667 0.69333333 0.94117647
  Cu2111 Cu 0.80666667 0.55333333 0.94117647
  Cu2112 Cu 0.40666667 0.35333333 0.94117647
  Cu2113 Cu 0.00666667 0.15333333 0.94117647
  Cu2114 Cu 0.60666667 0.95333333 0.94117647
  Cu2115 Cu 0.20666667 0.75333333 0.94117647
  Cu2116 Cu 0.62666667 0.01333333 0.94117647
  Cu2117 Cu 0.82666667 0.61333333 0.94117647
  Cu2118 Cu 0.42666667 0.41333333 0.94117647
  Cu2119 Cu 0.02666667 0.21333333 0.94117647
  Cu2120 Cu 0.22666667 0.81333333 0.94117647
  Cu2121 Cu 0.64666667 0.07333333 0.94117647
  Cu2122 Cu 0.84666667 0.67333333 0.94117647
  Cu2123 Cu 0.44666667 0.47333333 0.94117647
  Cu2124 Cu 0.04666667 0.27333333 0.94117647
  Cu2125 Cu 0.24666667 0.87333333 0.94117647
  Cu2126 Cu 0.80000000 0.40000000 0.00000000
  Cu2127 Cu 0.40000000 0.20000000 0.00000000
  Cu2128 Cu 0.00000000 0.00000000 0.00000000
  Cu2129 Cu 0.60000000 0.80000000 0.00000000
  Cu2130 Cu 0.20000000 0.60000000 0.00000000
  Cu2131 Cu 0.82000000 0.46000000 0.00000000
  Cu2132 Cu 0.42000000 0.26000000 0.00000000
  Cu2133 Cu 0.02000000 0.06000000 0.00000000
  Cu2134 Cu 0.62000000 0.86000000 0.00000000
  Cu2135 Cu 0.22000000 0.66000000 0.00000000
  Cu2136 Cu 0.84000000 0.52000000 0.00000000
  Cu2137 Cu 0.44000000 0.32000000 0.00000000
  Cu2138 Cu 0.04000000 0.12000000 0.00000000
  Cu2139 Cu 0.64000000 0.92000000 0.00000000
  Cu2140 Cu 0.24000000 0.72000000 0.00000000
  Cu2141 Cu 0.86000000 0.58000000 0.00000000
  Cu2142 Cu 0.46000000 0.38000000 0.00000000
  Cu2143 Cu 0.06000000 0.18000000 0.00000000
  Cu2144 Cu 0.66000000 0.98000000 0.00000000
  Cu2145 Cu 0.26000000 0.78000000 0.00000000
  Cu2146 Cu 0.68000000 0.04000000 0.00000000
  Cu2147 Cu 0.88000000 0.64000000 0.00000000
  Cu2148 Cu 0.48000000 0.44000000 0.00000000
  Cu2149 Cu 0.08000000 0.24000000 0.00000000
  Cu2150 Cu 0.28000000 0.84000000 0.00000000
  Cu2151 Cu 0.86000000 0.38000000 0.00000000
  Cu2152 Cu 0.46000000 0.18000000 0.00000000
  Cu2153 Cu 0.66000000 0.78000000 0.00000000
  Cu2154 Cu 0.26000000 0.58000000 0.00000000
  Cu2155 Cu 0.06000000 0.98000000 0.00000000
  Cu2156 Cu 0.88000000 0.44000000 0.00000000
  Cu2157 Cu 0.48000000 0.24000000 0.00000000
  Cu2158 Cu 0.08000000 0.04000000 0.00000000
  Cu2159 Cu 0.68000000 0.84000000 0.00000000
  Cu2160 Cu 0.28000000 0.64000000 0.00000000
  Cu2161 Cu 0.90000000 0.50000000 0.00000000
  Cu2162 Cu 0.50000000 0.30000000 0.00000000
  Cu2163 Cu 0.10000000 0.10000000 0.00000000
  Cu2164 Cu 0.70000000 0.90000000 0.00000000
  Cu2165 Cu 0.30000000 0.70000000 0.00000000
  Cu2166 Cu 0.92000000 0.56000000 0.00000000
  Cu2167 Cu 0.52000000 0.36000000 0.00000000
  Cu2168 Cu 0.12000000 0.16000000 0.00000000
  Cu2169 Cu 0.72000000 0.96000000 0.00000000
  Cu2170 Cu 0.32000000 0.76000000 0.00000000
  Cu2171 Cu 0.74000000 0.02000000 0.00000000
  Cu2172 Cu 0.94000000 0.62000000 0.00000000
  Cu2173 Cu 0.54000000 0.42000000 0.00000000
  Cu2174 Cu 0.14000000 0.22000000 0.00000000
  Cu2175 Cu 0.34000000 0.82000000 0.00000000
  Cu2176 Cu 0.92000000 0.36000000 0.00000000
  Cu2177 Cu 0.52000000 0.16000000 0.00000000
  Cu2178 Cu 0.72000000 0.76000000 0.00000000
  Cu2179 Cu 0.32000000 0.56000000 0.00000000
  Cu2180 Cu 0.12000000 0.96000000 0.00000000
  Cu2181 Cu 0.94000000 0.42000000 0.00000000
  Cu2182 Cu 0.54000000 0.22000000 0.00000000
  Cu2183 Cu 0.14000000 0.02000000 0.00000000
  Cu2184 Cu 0.74000000 0.82000000 0.00000000
  Cu2185 Cu 0.34000000 0.62000000 0.00000000
  Cu2186 Cu 0.96000000 0.48000000 0.00000000
  Cu2187 Cu 0.56000000 0.28000000 0.00000000
  Cu2188 Cu 0.16000000 0.08000000 0.00000000
  Cu2189 Cu 0.76000000 0.88000000 0.00000000
  Cu2190 Cu 0.36000000 0.68000000 0.00000000
  Cu2191 Cu 0.98000000 0.54000000 0.00000000
  Cu2192 Cu 0.58000000 0.34000000 0.00000000
  Cu2193 Cu 0.18000000 0.14000000 0.00000000
  Cu2194 Cu 0.78000000 0.94000000 0.00000000
  Cu2195 Cu 0.38000000 0.74000000 0.00000000
  Cu2196 Cu 0.80000000 0.00000000 0.00000000
  Cu2197 Cu 0.60000000 0.40000000 0.00000000
  Cu2198 Cu 0.20000000 0.20000000 0.00000000
  Cu2199 Cu 0.40000000 0.80000000 0.00000000
  Cu2200 Cu 0.00000000 0.60000000 0.00000000
  Cu2201 Cu 0.98000000 0.34000000 0.00000000
  Cu2202 Cu 0.58000000 0.14000000 0.00000000
  Cu2203 Cu 0.78000000 0.74000000 0.00000000
  Cu2204 Cu 0.38000000 0.54000000 0.00000000
  Cu2205 Cu 0.18000000 0.94000000 0.00000000
  Cu2206 Cu 0.60000000 0.20000000 0.00000000
  Cu2207 Cu 0.20000000 0.00000000 0.00000000
  Cu2208 Cu 0.80000000 0.80000000 0.00000000
  Cu2209 Cu 0.40000000 0.60000000 0.00000000
  Cu2210 Cu 0.00000000 0.40000000 0.00000000
  Cu2211 Cu 0.62000000 0.26000000 0.00000000
  Cu2212 Cu 0.22000000 0.06000000 0.00000000
  Cu2213 Cu 0.82000000 0.86000000 0.00000000
  Cu2214 Cu 0.42000000 0.66000000 0.00000000
  Cu2215 Cu 0.02000000 0.46000000 0.00000000
  Cu2216 Cu 0.64000000 0.32000000 0.00000000
  Cu2217 Cu 0.24000000 0.12000000 0.00000000
  Cu2218 Cu 0.84000000 0.92000000 0.00000000
  Cu2219 Cu 0.44000000 0.72000000 0.00000000
  Cu2220 Cu 0.04000000 0.52000000 0.00000000
  Cu2221 Cu 0.66000000 0.38000000 0.00000000
  Cu2222 Cu 0.26000000 0.18000000 0.00000000
  Cu2223 Cu 0.86000000 0.98000000 0.00000000
  Cu2224 Cu 0.46000000 0.78000000 0.00000000
  Cu2225 Cu 0.06000000 0.58000000 0.00000000
  Cu2226 Cu 0.64000000 0.12000000 0.00000000
  Cu2227 Cu 0.84000000 0.72000000 0.00000000
  Cu2228 Cu 0.44000000 0.52000000 0.00000000
  Cu2229 Cu 0.04000000 0.32000000 0.00000000
  Cu2230 Cu 0.24000000 0.92000000 0.00000000
  Cu2231 Cu 0.66000000 0.18000000 0.00000000
  Cu2232 Cu 0.86000000 0.78000000 0.00000000
  Cu2233 Cu 0.46000000 0.58000000 0.00000000
  Cu2234 Cu 0.06000000 0.38000000 0.00000000
  Cu2235 Cu 0.26000000 0.98000000 0.00000000
  Cu2236 Cu 0.68000000 0.24000000 0.00000000
  Cu2237 Cu 0.28000000 0.04000000 0.00000000
  Cu2238 Cu 0.88000000 0.84000000 0.00000000
  Cu2239 Cu 0.48000000 0.64000000 0.00000000
  Cu2240 Cu 0.08000000 0.44000000 0.00000000
  Cu2241 Cu 0.70000000 0.30000000 0.00000000
  Cu2242 Cu 0.30000000 0.10000000 0.00000000
  Cu2243 Cu 0.90000000 0.90000000 0.00000000
  Cu2244 Cu 0.50000000 0.70000000 0.00000000
  Cu2245 Cu 0.10000000 0.50000000 0.00000000
  Cu2246 Cu 0.72000000 0.36000000 0.00000000
  Cu2247 Cu 0.32000000 0.16000000 0.00000000
  Cu2248 Cu 0.92000000 0.96000000 0.00000000
  Cu2249 Cu 0.52000000 0.76000000 0.00000000
  Cu2250 Cu 0.12000000 0.56000000 0.00000000
  Cu2251 Cu 0.82666667 0.41333333 0.05882353
  Cu2252 Cu 0.42666667 0.21333333 0.05882353
  Cu2253 Cu 0.02666667 0.01333333 0.05882353
  Cu2254 Cu 0.62666667 0.81333333 0.05882353
  Cu2255 Cu 0.22666667 0.61333333 0.05882353
  Cu2256 Cu 0.84666667 0.47333333 0.05882353
  Cu2257 Cu 0.44666667 0.27333333 0.05882353
  Cu2258 Cu 0.04666667 0.07333333 0.05882353
  Cu2259 Cu 0.64666667 0.87333333 0.05882353
  Cu2260 Cu 0.24666667 0.67333333 0.05882353
  Cu2261 Cu 0.86666667 0.53333333 0.05882353
  Cu2262 Cu 0.46666667 0.33333333 0.05882353
  Cu2263 Cu 0.06666667 0.13333333 0.05882353
  Cu2264 Cu 0.66666667 0.93333333 0.05882353
  Cu2265 Cu 0.26666667 0.73333333 0.05882353
  Cu2266 Cu 0.88666667 0.59333333 0.05882353
  Cu2267 Cu 0.48666667 0.39333333 0.05882353
  Cu2268 Cu 0.08666667 0.19333333 0.05882353
  Cu2269 Cu 0.68666667 0.99333333 0.05882353
  Cu2270 Cu 0.28666667 0.79333333 0.05882353
  Cu2271 Cu 0.70666667 0.05333333 0.05882353
  Cu2272 Cu 0.90666667 0.65333333 0.05882353
  Cu2273 Cu 0.50666667 0.45333333 0.05882353
  Cu2274 Cu 0.10666667 0.25333333 0.05882353
  Cu2275 Cu 0.30666667 0.85333333 0.05882353
  Cu2276 Cu 0.88666667 0.39333333 0.05882353
  Cu2277 Cu 0.48666667 0.19333333 0.05882353
  Cu2278 Cu 0.68666667 0.79333333 0.05882353
  Cu2279 Cu 0.28666667 0.59333333 0.05882353
  Cu2280 Cu 0.08666667 0.99333333 0.05882353
  Cu2281 Cu 0.90666667 0.45333333 0.05882353
  Cu2282 Cu 0.50666667 0.25333333 0.05882353
  Cu2283 Cu 0.10666667 0.05333333 0.05882353
  Cu2284 Cu 0.70666667 0.85333333 0.05882353
  Cu2285 Cu 0.30666667 0.65333333 0.05882353
  Cu2286 Cu 0.92666667 0.51333333 0.05882353
  Cu2287 Cu 0.52666667 0.31333333 0.05882353
  Cu2288 Cu 0.12666667 0.11333333 0.05882353
  Cu2289 Cu 0.72666667 0.91333333 0.05882353
  Cu2290 Cu 0.32666667 0.71333333 0.05882353
  Cu2291 Cu 0.94666667 0.57333333 0.05882353
  Cu2292 Cu 0.54666667 0.37333333 0.05882353
  Cu2293 Cu 0.14666667 0.17333333 0.05882353
  Cu2294 Cu 0.74666667 0.97333333 0.05882353
  Cu2295 Cu 0.34666667 0.77333333 0.05882353
  Cu2296 Cu 0.76666667 0.03333333 0.05882353
  Cu2297 Cu 0.96666667 0.63333333 0.05882353
  Cu2298 Cu 0.56666667 0.43333333 0.05882353
  Cu2299 Cu 0.16666667 0.23333333 0.05882353
  Cu2300 Cu 0.36666667 0.83333333 0.05882353
  Cu2301 Cu 0.94666667 0.37333333 0.05882353
  Cu2302 Cu 0.54666667 0.17333333 0.05882353
  Cu2303 Cu 0.74666667 0.77333333 0.05882353
  Cu2304 Cu 0.34666667 0.57333333 0.05882353
  Cu2305 Cu 0.14666667 0.97333333 0.05882353
  Cu2306 Cu 0.96666667 0.43333333 0.05882353
  Cu2307 Cu 0.56666667 0.23333333 0.05882353
  Cu2308 Cu 0.16666667 0.03333333 0.05882353
  Cu2309 Cu 0.76666667 0.83333333 0.05882353
  Cu2310 Cu 0.36666667 0.63333333 0.05882353
  Cu2311 Cu 0.98666667 0.49333333 0.05882353
  Cu2312 Cu 0.58666667 0.29333333 0.05882353
  Cu2313 Cu 0.18666667 0.09333333 0.05882353
  Cu2314 Cu 0.78666667 0.89333333 0.05882353
  Cu2315 Cu 0.38666667 0.69333333 0.05882353
  Cu2316 Cu 0.60666667 0.35333333 0.05882353
  Cu2317 Cu 0.20666667 0.15333333 0.05882353
  Cu2318 Cu 0.80666667 0.95333333 0.05882353
  Cu2319 Cu 0.40666667 0.75333333 0.05882353
  Cu2320 Cu 0.00666667 0.55333333 0.05882353
  Cu2321 Cu 0.82666667 0.01333333 0.05882353
  Cu2322 Cu 0.62666667 0.41333333 0.05882353
  Cu2323 Cu 0.22666667 0.21333333 0.05882353
  Cu2324 Cu 0.42666667 0.81333333 0.05882353
  Cu2325 Cu 0.02666667 0.61333333 0.05882353
  Cu2326 Cu 0.60666667 0.15333333 0.05882353
  Cu2327 Cu 0.80666667 0.75333333 0.05882353
  Cu2328 Cu 0.40666667 0.55333333 0.05882353
  Cu2329 Cu 0.00666667 0.35333333 0.05882353
  Cu2330 Cu 0.20666667 0.95333333 0.05882353
  Cu2331 Cu 0.62666667 0.21333333 0.05882353
  Cu2332 Cu 0.22666667 0.01333333 0.05882353
  Cu2333 Cu 0.82666667 0.81333333 0.05882353
  Cu2334 Cu 0.42666667 0.61333333 0.05882353
  Cu2335 Cu 0.02666667 0.41333333 0.05882353
  Cu2336 Cu 0.64666667 0.27333333 0.05882353
  Cu2337 Cu 0.24666667 0.07333333 0.05882353
  Cu2338 Cu 0.84666667 0.87333333 0.05882353
  Cu2339 Cu 0.44666667 0.67333333 0.05882353
  Cu2340 Cu 0.04666667 0.47333333 0.05882353
  Cu2341 Cu 0.66666667 0.33333333 0.05882353
  Cu2342 Cu 0.26666667 0.13333333 0.05882353
  Cu2343 Cu 0.86666667 0.93333333 0.05882353
  Cu2344 Cu 0.46666667 0.73333333 0.05882353
  Cu2345 Cu 0.06666667 0.53333333 0.05882353
  Cu2346 Cu 0.68666667 0.39333333 0.05882353
  Cu2347 Cu 0.28666667 0.19333333 0.05882353
  Cu2348 Cu 0.88666667 0.99333333 0.05882353
  Cu2349 Cu 0.48666667 0.79333333 0.05882353
  Cu2350 Cu 0.08666667 0.59333333 0.05882353
  Cu2351 Cu 0.66666667 0.13333333 0.05882353
  Cu2352 Cu 0.86666667 0.73333333 0.05882353
  Cu2353 Cu 0.46666667 0.53333333 0.05882353
  Cu2354 Cu 0.06666667 0.33333333 0.05882353
  Cu2355 Cu 0.26666667 0.93333333 0.05882353
  Cu2356 Cu 0.68666667 0.19333333 0.05882353
  Cu2357 Cu 0.88666667 0.79333333 0.05882353
  Cu2358 Cu 0.48666667 0.59333333 0.05882353
  Cu2359 Cu 0.08666667 0.39333333 0.05882353
  Cu2360 Cu 0.28666667 0.99333333 0.05882353
  Cu2361 Cu 0.70666667 0.25333333 0.05882353
  Cu2362 Cu 0.30666667 0.05333333 0.05882353
  Cu2363 Cu 0.90666667 0.85333333 0.05882353
  Cu2364 Cu 0.50666667 0.65333333 0.05882353
  Cu2365 Cu 0.10666667 0.45333333 0.05882353
  Cu2366 Cu 0.72666667 0.31333333 0.05882353
  Cu2367 Cu 0.32666667 0.11333333 0.05882353
  Cu2368 Cu 0.92666667 0.91333333 0.05882353
  Cu2369 Cu 0.52666667 0.71333333 0.05882353
  Cu2370 Cu 0.12666667 0.51333333 0.05882353
  Cu2371 Cu 0.74666667 0.37333333 0.05882353
  Cu2372 Cu 0.34666667 0.17333333 0.05882353
  Cu2373 Cu 0.94666667 0.97333333 0.05882353
  Cu2374 Cu 0.54666667 0.77333333 0.05882353
  Cu2375 Cu 0.14666667 0.57333333 0.05882353
  Cu2376 Cu 0.85333333 0.42666667 0.11764706
  Cu2377 Cu 0.45333333 0.22666667 0.11764706
  Cu2378 Cu 0.05333333 0.02666667 0.11764706
  Cu2379 Cu 0.65333333 0.82666667 0.11764706
  Cu2380 Cu 0.25333333 0.62666667 0.11764706
  Cu2381 Cu 0.87333333 0.48666667 0.11764706
  Cu2382 Cu 0.47333333 0.28666667 0.11764706
  Cu2383 Cu 0.07333333 0.08666667 0.11764706
  Cu2384 Cu 0.67333333 0.88666667 0.11764706
  Cu2385 Cu 0.27333333 0.68666667 0.11764706
  Cu2386 Cu 0.89333333 0.54666667 0.11764706
  Cu2387 Cu 0.49333333 0.34666667 0.11764706
  Cu2388 Cu 0.09333333 0.14666667 0.11764706
  Cu2389 Cu 0.69333333 0.94666667 0.11764706
  Cu2390 Cu 0.29333333 0.74666667 0.11764706
  Cu2391 Cu 0.71333333 0.00666667 0.11764706
  Cu2392 Cu 0.91333333 0.60666667 0.11764706
  Cu2393 Cu 0.51333333 0.40666667 0.11764706
  Cu2394 Cu 0.11333333 0.20666667 0.11764706
  Cu2395 Cu 0.31333333 0.80666667 0.11764706
  Cu2396 Cu 0.73333333 0.06666667 0.11764706
  Cu2397 Cu 0.93333333 0.66666667 0.11764706
  Cu2398 Cu 0.53333333 0.46666667 0.11764706
  Cu2399 Cu 0.13333333 0.26666667 0.11764706
  Cu2400 Cu 0.33333333 0.86666667 0.11764706
  Cu2401 Cu 0.91333333 0.40666667 0.11764706
  Cu2402 Cu 0.51333333 0.20666667 0.11764706
  Cu2403 Cu 0.11333333 0.00666667 0.11764706
  Cu2404 Cu 0.71333333 0.80666667 0.11764706
  Cu2405 Cu 0.31333333 0.60666667 0.11764706
  Cu2406 Cu 0.93333333 0.46666667 0.11764706
  Cu2407 Cu 0.53333333 0.26666667 0.11764706
  Cu2408 Cu 0.13333333 0.06666667 0.11764706
  Cu2409 Cu 0.73333333 0.86666667 0.11764706
  Cu2410 Cu 0.33333333 0.66666667 0.11764706
  Cu2411 Cu 0.95333333 0.52666667 0.11764706
  Cu2412 Cu 0.55333333 0.32666667 0.11764706
  Cu2413 Cu 0.15333333 0.12666667 0.11764706
  Cu2414 Cu 0.75333333 0.92666667 0.11764706
  Cu2415 Cu 0.35333333 0.72666667 0.11764706
  Cu2416 Cu 0.97333333 0.58666667 0.11764706
  Cu2417 Cu 0.57333333 0.38666667 0.11764706
  Cu2418 Cu 0.17333333 0.18666667 0.11764706
  Cu2419 Cu 0.77333333 0.98666667 0.11764706
  Cu2420 Cu 0.37333333 0.78666667 0.11764706
  Cu2421 Cu 0.79333333 0.04666667 0.11764706
  Cu2422 Cu 0.99333333 0.64666667 0.11764706
  Cu2423 Cu 0.59333333 0.44666667 0.11764706
  Cu2424 Cu 0.19333333 0.24666667 0.11764706
  Cu2425 Cu 0.39333333 0.84666667 0.11764706
  Cu2426 Cu 0.97333333 0.38666667 0.11764706
  Cu2427 Cu 0.57333333 0.18666667 0.11764706
  Cu2428 Cu 0.77333333 0.78666667 0.11764706
  Cu2429 Cu 0.37333333 0.58666667 0.11764706
  Cu2430 Cu 0.17333333 0.98666667 0.11764706
  Cu2431 Cu 0.99333333 0.44666667 0.11764706
  Cu2432 Cu 0.59333333 0.24666667 0.11764706
  Cu2433 Cu 0.19333333 0.04666667 0.11764706
  Cu2434 Cu 0.79333333 0.84666667 0.11764706
  Cu2435 Cu 0.39333333 0.64666667 0.11764706
  Cu2436 Cu 0.61333333 0.30666667 0.11764706
  Cu2437 Cu 0.21333333 0.10666667 0.11764706
  Cu2438 Cu 0.81333333 0.90666667 0.11764706
  Cu2439 Cu 0.41333333 0.70666667 0.11764706
  Cu2440 Cu 0.01333333 0.50666667 0.11764706
  Cu2441 Cu 0.63333333 0.36666667 0.11764706
  Cu2442 Cu 0.23333333 0.16666667 0.11764706
  Cu2443 Cu 0.83333333 0.96666667 0.11764706
  Cu2444 Cu 0.43333333 0.76666667 0.11764706
  Cu2445 Cu 0.03333333 0.56666667 0.11764706
  Cu2446 Cu 0.85333333 0.02666667 0.11764706
  Cu2447 Cu 0.65333333 0.42666667 0.11764706
  Cu2448 Cu 0.25333333 0.22666667 0.11764706
  Cu2449 Cu 0.45333333 0.82666667 0.11764706
  Cu2450 Cu 0.05333333 0.62666667 0.11764706
  Cu2451 Cu 0.63333333 0.16666667 0.11764706
  Cu2452 Cu 0.83333333 0.76666667 0.11764706
  Cu2453 Cu 0.43333333 0.56666667 0.11764706
  Cu2454 Cu 0.03333333 0.36666667 0.11764706
  Cu2455 Cu 0.23333333 0.96666667 0.11764706
  Cu2456 Cu 0.65333333 0.22666667 0.11764706
  Cu2457 Cu 0.25333333 0.02666667 0.11764706
  Cu2458 Cu 0.85333333 0.82666667 0.11764706
  Cu2459 Cu 0.45333333 0.62666667 0.11764706
  Cu2460 Cu 0.05333333 0.42666667 0.11764706
  Cu2461 Cu 0.67333333 0.28666667 0.11764706
  Cu2462 Cu 0.27333333 0.08666667 0.11764706
  Cu2463 Cu 0.87333333 0.88666667 0.11764706
  Cu2464 Cu 0.47333333 0.68666667 0.11764706
  Cu2465 Cu 0.07333333 0.48666667 0.11764706
  Cu2466 Cu 0.69333333 0.34666667 0.11764706
  Cu2467 Cu 0.29333333 0.14666667 0.11764706
  Cu2468 Cu 0.89333333 0.94666667 0.11764706
  Cu2469 Cu 0.49333333 0.74666667 0.11764706
  Cu2470 Cu 0.09333333 0.54666667 0.11764706
  Cu2471 Cu 0.91333333 0.00666667 0.11764706
  Cu2472 Cu 0.71333333 0.40666667 0.11764706
  Cu2473 Cu 0.31333333 0.20666667 0.11764706
  Cu2474 Cu 0.51333333 0.80666667 0.11764706
  Cu2475 Cu 0.11333333 0.60666667 0.11764706
  Cu2476 Cu 0.69333333 0.14666667 0.11764706
  Cu2477 Cu 0.89333333 0.74666667 0.11764706
  Cu2478 Cu 0.49333333 0.54666667 0.11764706
  Cu2479 Cu 0.09333333 0.34666667 0.11764706
  Cu2480 Cu 0.29333333 0.94666667 0.11764706
  Cu2481 Cu 0.71333333 0.20666667 0.11764706
  Cu2482 Cu 0.31333333 0.00666667 0.11764706
  Cu2483 Cu 0.91333333 0.80666667 0.11764706
  Cu2484 Cu 0.51333333 0.60666667 0.11764706
  Cu2485 Cu 0.11333333 0.40666667 0.11764706
  Cu2486 Cu 0.73333333 0.26666667 0.11764706
  Cu2487 Cu 0.33333333 0.06666667 0.11764706
  Cu2488 Cu 0.93333333 0.86666667 0.11764706
  Cu2489 Cu 0.53333333 0.66666667 0.11764706
  Cu2490 Cu 0.13333333 0.46666667 0.11764706
  Cu2491 Cu 0.75333333 0.32666667 0.11764706
  Cu2492 Cu 0.35333333 0.12666667 0.11764706
  Cu2493 Cu 0.95333333 0.92666667 0.11764706
  Cu2494 Cu 0.55333333 0.72666667 0.11764706
  Cu2495 Cu 0.15333333 0.52666667 0.11764706
  Cu2496 Cu 0.77333333 0.38666667 0.11764706
  Cu2497 Cu 0.37333333 0.18666667 0.11764706
  Cu2498 Cu 0.97333333 0.98666667 0.11764706
  Cu2499 Cu 0.57333333 0.78666667 0.11764706
  Cu2500 Cu 0.17333333 0.58666667 0.11764706
  Cu2501 Cu 0.80000000 0.40000000 0.17647059
  Cu2502 Cu 0.40000000 0.20000000 0.17647059
  Cu2503 Cu 0.00000000 0.00000000 0.17647059
  Cu2504 Cu 0.60000000 0.80000000 0.17647059
  Cu2505 Cu 0.20000000 0.60000000 0.17647059
  Cu2506 Cu 0.82000000 0.46000000 0.17647059
  Cu2507 Cu 0.42000000 0.26000000 0.17647059
  Cu2508 Cu 0.02000000 0.06000000 0.17647059
  Cu2509 Cu 0.62000000 0.86000000 0.17647059
  Cu2510 Cu 0.22000000 0.66000000 0.17647059
  Cu2511 Cu 0.84000000 0.52000000 0.17647059
  Cu2512 Cu 0.44000000 0.32000000 0.17647059
  Cu2513 Cu 0.04000000 0.12000000 0.17647059
  Cu2514 Cu 0.64000000 0.92000000 0.17647059
  Cu2515 Cu 0.24000000 0.72000000 0.17647059
  Cu2516 Cu 0.86000000 0.58000000 0.17647059
  Cu2517 Cu 0.46000000 0.38000000 0.17647059
  Cu2518 Cu 0.06000000 0.18000000 0.17647059
  Cu2519 Cu 0.66000000 0.98000000 0.17647059
  Cu2520 Cu 0.26000000 0.78000000 0.17647059
  Cu2521 Cu 0.68000000 0.04000000 0.17647059
  Cu2522 Cu 0.88000000 0.64000000 0.17647059
  Cu2523 Cu 0.48000000 0.44000000 0.17647059
  Cu2524 Cu 0.08000000 0.24000000 0.17647059
  Cu2525 Cu 0.28000000 0.84000000 0.17647059
  Cu2526 Cu 0.86000000 0.38000000 0.17647059
  Cu2527 Cu 0.46000000 0.18000000 0.17647059
  Cu2528 Cu 0.66000000 0.78000000 0.17647059
  Cu2529 Cu 0.26000000 0.58000000 0.17647059
  Cu2530 Cu 0.06000000 0.98000000 0.17647059
  Cu2531 Cu 0.88000000 0.44000000 0.17647059
  Cu2532 Cu 0.48000000 0.24000000 0.17647059
  Cu2533 Cu 0.08000000 0.04000000 0.17647059
  Cu2534 Cu 0.68000000 0.84000000 0.17647059
  Cu2535 Cu 0.28000000 0.64000000 0.17647059
  Cu2536 Cu 0.90000000 0.50000000 0.17647059
  Cu2537 Cu 0.50000000 0.30000000 0.17647059
  Cu2538 Cu 0.10000000 0.10000000 0.17647059
  Cu2539 Cu 0.70000000 0.90000000 0.17647059
  Cu2540 Cu 0.30000000 0.70000000 0.17647059
  Cu2541 Cu 0.92000000 0.56000000 0.17647059
  Cu2542 Cu 0.52000000 0.36000000 0.17647059
  Cu2543 Cu 0.12000000 0.16000000 0.17647059
  Cu2544 Cu 0.72000000 0.96000000 0.17647059
  Cu2545 Cu 0.32000000 0.76000000 0.17647059
  Cu2546 Cu 0.74000000 0.02000000 0.17647059
  Cu2547 Cu 0.94000000 0.62000000 0.17647059
  Cu2548 Cu 0.54000000 0.42000000 0.17647059
  Cu2549 Cu 0.14000000 0.22000000 0.17647059
  Cu2550 Cu 0.34000000 0.82000000 0.17647059
  Cu2551 Cu 0.92000000 0.36000000 0.17647059
  Cu2552 Cu 0.52000000 0.16000000 0.17647059
  Cu2553 Cu 0.72000000 0.76000000 0.17647059
  Cu2554 Cu 0.32000000 0.56000000 0.17647059
  Cu2555 Cu 0.12000000 0.96000000 0.17647059
  Cu2556 Cu 0.94000000 0.42000000 0.17647059
  Cu2557 Cu 0.54000000 0.22000000 0.17647059
  Cu2558 Cu 0.14000000 0.02000000 0.17647059
  Cu2559 Cu 0.74000000 0.82000000 0.17647059
  Cu2560 Cu 0.34000000 0.62000000 0.17647059
  Cu2561 Cu 0.96000000 0.48000000 0.17647059
  Cu2562 Cu 0.56000000 0.28000000 0.17647059
  Cu2563 Cu 0.16000000 0.08000000 0.17647059
  Cu2564 Cu 0.76000000 0.88000000 0.17647059
  Cu2565 Cu 0.36000000 0.68000000 0.17647059
  Cu2566 Cu 0.98000000 0.54000000 0.17647059
  Cu2567 Cu 0.58000000 0.34000000 0.17647059
  Cu2568 Cu 0.18000000 0.14000000 0.17647059
  Cu2569 Cu 0.78000000 0.94000000 0.17647059
  Cu2570 Cu 0.38000000 0.74000000 0.17647059
  Cu2571 Cu 0.80000000 0.00000000 0.17647059
  Cu2572 Cu 0.60000000 0.40000000 0.17647059
  Cu2573 Cu 0.20000000 0.20000000 0.17647059
  Cu2574 Cu 0.40000000 0.80000000 0.17647059
  Cu2575 Cu 0.00000000 0.60000000 0.17647059
  Cu2576 Cu 0.98000000 0.34000000 0.17647059
  Cu2577 Cu 0.58000000 0.14000000 0.17647059
  Cu2578 Cu 0.78000000 0.74000000 0.17647059
  Cu2579 Cu 0.38000000 0.54000000 0.17647059
  Cu2580 Cu 0.18000000 0.94000000 0.17647059
  Cu2581 Cu 0.60000000 0.20000000 0.17647059
  Cu2582 Cu 0.20000000 0.00000000 0.17647059
  Cu2583 Cu 0.80000000 0.80000000 0.17647059
  Cu2584 Cu 0.40000000 0.60000000 0.17647059
  Cu2585 Cu 0.00000000 0.40000000 0.17647059
  Cu2586 Cu 0.62000000 0.26000000 0.17647059
  Cu2587 Cu 0.22000000 0.06000000 0.17647059
  Cu2588 Cu 0.82000000 0.86000000 0.17647059
  Cu2589 Cu 0.42000000 0.66000000 0.17647059
  Cu2590 Cu 0.02000000 0.46000000 0.17647059
  Cu2591 Cu 0.64000000 0.32000000 0.17647059
  Cu2592 Cu 0.24000000 0.12000000 0.17647059
  Cu2593 Cu 0.84000000 0.92000000 0.17647059
  Cu2594 Cu 0.44000000 0.72000000 0.17647059
  Cu2595 Cu 0.04000000 0.52000000 0.17647059
  Cu2596 Cu 0.66000000 0.38000000 0.17647059
  Cu2597 Cu 0.26000000 0.18000000 0.17647059
  Cu2598 Cu 0.86000000 0.98000000 0.17647059
  Cu2599 Cu 0.46000000 0.78000000 0.17647059
  Cu2600 Cu 0.06000000 0.58000000 0.17647059
  Cu2601 Cu 0.64000000 0.12000000 0.17647059
  Cu2602 Cu 0.84000000 0.72000000 0.17647059
  Cu2603 Cu 0.44000000 0.52000000 0.17647059
  Cu2604 Cu 0.04000000 0.32000000 0.17647059
  Cu2605 Cu 0.24000000 0.92000000 0.17647059
  Cu2606 Cu 0.66000000 0.18000000 0.17647059
  Cu2607 Cu 0.86000000 0.78000000 0.17647059
  Cu2608 Cu 0.46000000 0.58000000 0.17647059
  Cu2609 Cu 0.06000000 0.38000000 0.17647059
  Cu2610 Cu 0.26000000 0.98000000 0.17647059
  Cu2611 Cu 0.68000000 0.24000000 0.17647059
  Cu2612 Cu 0.28000000 0.04000000 0.17647059
  Cu2613 Cu 0.88000000 0.84000000 0.17647059
  Cu2614 Cu 0.48000000 0.64000000 0.17647059
  Cu2615 Cu 0.08000000 0.44000000 0.17647059
  Cu2616 Cu 0.70000000 0.30000000 0.17647059
  Cu2617 Cu 0.30000000 0.10000000 0.17647059
  Cu2618 Cu 0.90000000 0.90000000 0.17647059
  Cu2619 Cu 0.50000000 0.70000000 0.17647059
  Cu2620 Cu 0.10000000 0.50000000 0.17647059
  Cu2621 Cu 0.72000000 0.36000000 0.17647059
  Cu2622 Cu 0.32000000 0.16000000 0.17647059
  Cu2623 Cu 0.92000000 0.96000000 0.17647059
  Cu2624 Cu 0.52000000 0.76000000 0.17647059
  Cu2625 Cu 0.12000000 0.56000000 0.17647059
  Cu2626 Cu 0.82666667 0.41333333 0.23529412
  Cu2627 Cu 0.42666667 0.21333333 0.23529412
  Cu2628 Cu 0.02666667 0.01333333 0.23529412
  Cu2629 Cu 0.62666667 0.81333333 0.23529412
  Cu2630 Cu 0.22666667 0.61333333 0.23529412
  Cu2631 Cu 0.84666667 0.47333333 0.23529412
  Cu2632 Cu 0.44666667 0.27333333 0.23529412
  Cu2633 Cu 0.04666667 0.07333333 0.23529412
  Cu2634 Cu 0.64666667 0.87333333 0.23529412
  Cu2635 Cu 0.24666667 0.67333333 0.23529412
  Cu2636 Cu 0.86666667 0.53333333 0.23529412
  Cu2637 Cu 0.46666667 0.33333333 0.23529412
  Cu2638 Cu 0.06666667 0.13333333 0.23529412
  Cu2639 Cu 0.66666667 0.93333333 0.23529412
  Cu2640 Cu 0.26666667 0.73333333 0.23529412
  Cu2641 Cu 0.88666667 0.59333333 0.23529412
  Cu2642 Cu 0.48666667 0.39333333 0.23529412
  Cu2643 Cu 0.08666667 0.19333333 0.23529412
  Cu2644 Cu 0.68666667 0.99333333 0.23529412
  Cu2645 Cu 0.28666667 0.79333333 0.23529412
  Cu2646 Cu 0.70666667 0.05333333 0.23529412
  Cu2647 Cu 0.90666667 0.65333333 0.23529412
  Cu2648 Cu 0.50666667 0.45333333 0.23529412
  Cu2649 Cu 0.10666667 0.25333333 0.23529412
  Cu2650 Cu 0.30666667 0.85333333 0.23529412
  Cu2651 Cu 0.88666667 0.39333333 0.23529412
  Cu2652 Cu 0.48666667 0.19333333 0.23529412
  Cu2653 Cu 0.68666667 0.79333333 0.23529412
  Cu2654 Cu 0.28666667 0.59333333 0.23529412
  Cu2655 Cu 0.08666667 0.99333333 0.23529412
  Cu2656 Cu 0.90666667 0.45333333 0.23529412
  Cu2657 Cu 0.50666667 0.25333333 0.23529412
  Cu2658 Cu 0.10666667 0.05333333 0.23529412
  Cu2659 Cu 0.70666667 0.85333333 0.23529412
  Cu2660 Cu 0.30666667 0.65333333 0.23529412
  Cu2661 Cu 0.92666667 0.51333333 0.23529412
  Cu2662 Cu 0.52666667 0.31333333 0.23529412
  Cu2663 Cu 0.12666667 0.11333333 0.23529412
  Cu2664 Cu 0.72666667 0.91333333 0.23529412
  Cu2665 Cu 0.32666667 0.71333333 0.23529412
  Cu2666 Cu 0.94666667 0.57333333 0.23529412
  Cu2667 Cu 0.54666667 0.37333333 0.23529412
  Cu2668 Cu 0.14666667 0.17333333 0.23529412
  Cu2669 Cu 0.74666667 0.97333333 0.23529412
  Cu2670 Cu 0.34666667 0.77333333 0.23529412
  Cu2671 Cu 0.76666667 0.03333333 0.23529412
  Cu2672 Cu 0.96666667 0.63333333 0.23529412
  Cu2673 Cu 0.56666667 0.43333333 0.23529412
  Cu2674 Cu 0.16666667 0.23333333 0.23529412
  Cu2675 Cu 0.36666667 0.83333333 0.23529412
  Cu2676 Cu 0.94666667 0.37333333 0.23529412
  Cu2677 Cu 0.54666667 0.17333333 0.23529412
  Cu2678 Cu 0.74666667 0.77333333 0.23529412
  Cu2679 Cu 0.34666667 0.57333333 0.23529412
  Cu2680 Cu 0.14666667 0.97333333 0.23529412
  Cu2681 Cu 0.96666667 0.43333333 0.23529412
  Cu2682 Cu 0.56666667 0.23333333 0.23529412
  Cu2683 Cu 0.16666667 0.03333333 0.23529412
  Cu2684 Cu 0.76666667 0.83333333 0.23529412
  Cu2685 Cu 0.36666667 0.63333333 0.23529412
  Cu2686 Cu 0.98666667 0.49333333 0.23529412
  Cu2687 Cu 0.58666667 0.29333333 0.23529412
  Cu2688 Cu 0.18666667 0.09333333 0.23529412
  Cu2689 Cu 0.78666667 0.89333333 0.23529412
  Cu2690 Cu 0.38666667 0.69333333 0.23529412
  Cu2691 Cu 0.60666667 0.35333333 0.23529412
  Cu2692 Cu 0.20666667 0.15333333 0.23529412
  Cu2693 Cu 0.80666667 0.95333333 0.23529412
  Cu2694 Cu 0.40666667 0.75333333 0.23529412
  Cu2695 Cu 0.00666667 0.55333333 0.23529412
  Cu2696 Cu 0.82666667 0.01333333 0.23529412
  Cu2697 Cu 0.62666667 0.41333333 0.23529412
  Cu2698 Cu 0.22666667 0.21333333 0.23529412
  Cu2699 Cu 0.42666667 0.81333333 0.23529412
  Cu2700 Cu 0.02666667 0.61333333 0.23529412
  Cu2701 Cu 0.60666667 0.15333333 0.23529412
  Cu2702 Cu 0.80666667 0.75333333 0.23529412
  Cu2703 Cu 0.40666667 0.55333333 0.23529412
  Cu2704 Cu 0.00666667 0.35333333 0.23529412
  Cu2705 Cu 0.20666667 0.95333333 0.23529412
  Cu2706 Cu 0.62666667 0.21333333 0.23529412
  Cu2707 Cu 0.22666667 0.01333333 0.23529412
  Cu2708 Cu 0.82666667 0.81333333 0.23529412
  Cu2709 Cu 0.42666667 0.61333333 0.23529412
  Cu2710 Cu 0.02666667 0.41333333 0.23529412
  Cu2711 Cu 0.64666667 0.27333333 0.23529412
  Cu2712 Cu 0.24666667 0.07333333 0.23529412
  Cu2713 Cu 0.84666667 0.87333333 0.23529412
  Cu2714 Cu 0.44666667 0.67333333 0.23529412
  Cu2715 Cu 0.04666667 0.47333333 0.23529412
  Cu2716 Cu 0.66666667 0.33333333 0.23529412
  Cu2717 Cu 0.26666667 0.13333333 0.23529412
  Cu2718 Cu 0.86666667 0.93333333 0.23529412
  Cu2719 Cu 0.46666667 0.73333333 0.23529412
  Cu2720 Cu 0.06666667 0.53333333 0.23529412
  Cu2721 Cu 0.68666667 0.39333333 0.23529412
  Cu2722 Cu 0.28666667 0.19333333 0.23529412
  Cu2723 Cu 0.88666667 0.99333333 0.23529412
  Cu2724 Cu 0.48666667 0.79333333 0.23529412
  Cu2725 Cu 0.08666667 0.59333333 0.23529412
  Cu2726 Cu 0.66666667 0.13333333 0.23529412
  Cu2727 Cu 0.86666667 0.73333333 0.23529412
  Cu2728 Cu 0.46666667 0.53333333 0.23529412
  Cu2729 Cu 0.06666667 0.33333333 0.23529412
  Cu2730 Cu 0.26666667 0.93333333 0.23529412
  Cu2731 Cu 0.68666667 0.19333333 0.23529412
  Cu2732 Cu 0.88666667 0.79333333 0.23529412
  Cu2733 Cu 0.48666667 0.59333333 0.23529412
  Cu2734 Cu 0.08666667 0.39333333 0.23529412
  Cu2735 Cu 0.28666667 0.99333333 0.23529412
  Cu2736 Cu 0.70666667 0.25333333 0.23529412
  Cu2737 Cu 0.30666667 0.05333333 0.23529412
  Cu2738 Cu 0.90666667 0.85333333 0.23529412
  Cu2739 Cu 0.50666667 0.65333333 0.23529412
  Cu2740 Cu 0.10666667 0.45333333 0.23529412
  Cu2741 Cu 0.72666667 0.31333333 0.23529412
  Cu2742 Cu 0.32666667 0.11333333 0.23529412
  Cu2743 Cu 0.92666667 0.91333333 0.23529412
  Cu2744 Cu 0.52666667 0.71333333 0.23529412
  Cu2745 Cu 0.12666667 0.51333333 0.23529412
  Cu2746 Cu 0.74666667 0.37333333 0.23529412
  Cu2747 Cu 0.34666667 0.17333333 0.23529412
  Cu2748 Cu 0.94666667 0.97333333 0.23529412
  Cu2749 Cu 0.54666667 0.77333333 0.23529412
  Cu2750 Cu 0.14666667 0.57333333 0.23529412
  Cu2751 Cu 0.80000000 0.40000000 0.29411765
  Cu2752 Cu 0.40000000 0.20000000 0.29411765
  Cu2753 Cu 0.00000000 0.00000000 0.29411765
  Cu2754 Cu 0.60000000 0.80000000 0.29411765
  Cu2755 Cu 0.20000000 0.60000000 0.29411765
  Cu2756 Cu 0.82000000 0.46000000 0.29411765
  Cu2757 Cu 0.42000000 0.26000000 0.29411765
  Cu2758 Cu 0.02000000 0.06000000 0.29411765
  Cu2759 Cu 0.62000000 0.86000000 0.29411765
  Cu2760 Cu 0.22000000 0.66000000 0.29411765
  Cu2761 Cu 0.84000000 0.52000000 0.29411765
  Cu2762 Cu 0.44000000 0.32000000 0.29411765
  Cu2763 Cu 0.04000000 0.12000000 0.29411765
  Cu2764 Cu 0.64000000 0.92000000 0.29411765
  Cu2765 Cu 0.24000000 0.72000000 0.29411765
  Cu2766 Cu 0.86000000 0.58000000 0.29411765
  Cu2767 Cu 0.46000000 0.38000000 0.29411765
  Cu2768 Cu 0.06000000 0.18000000 0.29411765
  Cu2769 Cu 0.66000000 0.98000000 0.29411765
  Cu2770 Cu 0.26000000 0.78000000 0.29411765
  Cu2771 Cu 0.68000000 0.04000000 0.29411765
  Cu2772 Cu 0.88000000 0.64000000 0.29411765
  Cu2773 Cu 0.48000000 0.44000000 0.29411765
  Cu2774 Cu 0.08000000 0.24000000 0.29411765
  Cu2775 Cu 0.28000000 0.84000000 0.29411765
  Cu2776 Cu 0.86000000 0.38000000 0.29411765
  Cu2777 Cu 0.46000000 0.18000000 0.29411765
  Cu2778 Cu 0.66000000 0.78000000 0.29411765
  Cu2779 Cu 0.26000000 0.58000000 0.29411765
  Cu2780 Cu 0.06000000 0.98000000 0.29411765
  Cu2781 Cu 0.88000000 0.44000000 0.29411765
  Cu2782 Cu 0.48000000 0.24000000 0.29411765
  Cu2783 Cu 0.08000000 0.04000000 0.29411765
  Cu2784 Cu 0.68000000 0.84000000 0.29411765
  Cu2785 Cu 0.28000000 0.64000000 0.29411765
  Cu2786 Cu 0.90000000 0.50000000 0.29411765
  Cu2787 Cu 0.50000000 0.30000000 0.29411765
  Cu2788 Cu 0.10000000 0.10000000 0.29411765
  Cu2789 Cu 0.70000000 0.90000000 0.29411765
  Cu2790 Cu 0.30000000 0.70000000 0.29411765
  Cu2791 Cu 0.92000000 0.56000000 0.29411765
  Cu2792 Cu 0.52000000 0.36000000 0.29411765
  Cu2793 Cu 0.12000000 0.16000000 0.29411765
  Cu2794 Cu 0.72000000 0.96000000 0.29411765
  Cu2795 Cu 0.32000000 0.76000000 0.29411765
  Cu2796 Cu 0.74000000 0.02000000 0.29411765
  Cu2797 Cu 0.94000000 0.62000000 0.29411765
  Cu2798 Cu 0.54000000 0.42000000 0.29411765
  Cu2799 Cu 0.14000000 0.22000000 0.29411765
  Cu2800 Cu 0.34000000 0.82000000 0.29411765
  Cu2801 Cu 0.92000000 0.36000000 0.29411765
  Cu2802 Cu 0.52000000 0.16000000 0.29411765
  Cu2803 Cu 0.72000000 0.76000000 0.29411765
  Cu2804 Cu 0.32000000 0.56000000 0.29411765
  Cu2805 Cu 0.12000000 0.96000000 0.29411765
  Cu2806 Cu 0.94000000 0.42000000 0.29411765
  Cu2807 Cu 0.54000000 0.22000000 0.29411765
  Cu2808 Cu 0.14000000 0.02000000 0.29411765
  Cu2809 Cu 0.74000000 0.82000000 0.29411765
  Cu2810 Cu 0.34000000 0.62000000 0.29411765
  Cu2811 Cu 0.96000000 0.48000000 0.29411765
  Cu2812 Cu 0.56000000 0.28000000 0.29411765
  Cu2813 Cu 0.16000000 0.08000000 0.29411765
  Cu2814 Cu 0.76000000 0.88000000 0.29411765
  Cu2815 Cu 0.36000000 0.68000000 0.29411765
  Cu2816 Cu 0.98000000 0.54000000 0.29411765
  Cu2817 Cu 0.58000000 0.34000000 0.29411765
  Cu2818 Cu 0.18000000 0.14000000 0.29411765
  Cu2819 Cu 0.78000000 0.94000000 0.29411765
  Cu2820 Cu 0.38000000 0.74000000 0.29411765
  Cu2821 Cu 0.80000000 0.00000000 0.29411765
  Cu2822 Cu 0.60000000 0.40000000 0.29411765
  Cu2823 Cu 0.20000000 0.20000000 0.29411765
  Cu2824 Cu 0.40000000 0.80000000 0.29411765
  Cu2825 Cu 0.00000000 0.60000000 0.29411765
  Cu2826 Cu 0.98000000 0.34000000 0.29411765
  Cu2827 Cu 0.58000000 0.14000000 0.29411765
  Cu2828 Cu 0.78000000 0.74000000 0.29411765
  Cu2829 Cu 0.38000000 0.54000000 0.29411765
  Cu2830 Cu 0.18000000 0.94000000 0.29411765
  Cu2831 Cu 0.60000000 0.20000000 0.29411765
  Cu2832 Cu 0.20000000 0.00000000 0.29411765
  Cu2833 Cu 0.80000000 0.80000000 0.29411765
  Cu2834 Cu 0.40000000 0.60000000 0.29411765
  Cu2835 Cu 0.00000000 0.40000000 0.29411765
  Cu2836 Cu 0.62000000 0.26000000 0.29411765
  Cu2837 Cu 0.22000000 0.06000000 0.29411765
  Cu2838 Cu 0.82000000 0.86000000 0.29411765
  Cu2839 Cu 0.42000000 0.66000000 0.29411765
  Cu2840 Cu 0.02000000 0.46000000 0.29411765
  Cu2841 Cu 0.64000000 0.32000000 0.29411765
  Cu2842 Cu 0.24000000 0.12000000 0.29411765
  Cu2843 Cu 0.84000000 0.92000000 0.29411765
  Cu2844 Cu 0.44000000 0.72000000 0.29411765
  Cu2845 Cu 0.04000000 0.52000000 0.29411765
  Cu2846 Cu 0.66000000 0.38000000 0.29411765
  Cu2847 Cu 0.26000000 0.18000000 0.29411765
  Cu2848 Cu 0.86000000 0.98000000 0.29411765
  Cu2849 Cu 0.46000000 0.78000000 0.29411765
  Cu2850 Cu 0.06000000 0.58000000 0.29411765
  Cu2851 Cu 0.64000000 0.12000000 0.29411765
  Cu2852 Cu 0.84000000 0.72000000 0.29411765
  Cu2853 Cu 0.44000000 0.52000000 0.29411765
  Cu2854 Cu 0.04000000 0.32000000 0.29411765
  Cu2855 Cu 0.24000000 0.92000000 0.29411765
  Cu2856 Cu 0.66000000 0.18000000 0.29411765
  Cu2857 Cu 0.86000000 0.78000000 0.29411765
  Cu2858 Cu 0.46000000 0.58000000 0.29411765
  Cu2859 Cu 0.06000000 0.38000000 0.29411765
  Cu2860 Cu 0.26000000 0.98000000 0.29411765
  Cu2861 Cu 0.68000000 0.24000000 0.29411765
  Cu2862 Cu 0.28000000 0.04000000 0.29411765
  Cu2863 Cu 0.88000000 0.84000000 0.29411765
  Cu2864 Cu 0.48000000 0.64000000 0.29411765
  Cu2865 Cu 0.08000000 0.44000000 0.29411765
  Cu2866 Cu 0.70000000 0.30000000 0.29411765
  Cu2867 Cu 0.30000000 0.10000000 0.29411765
  Cu2868 Cu 0.90000000 0.90000000 0.29411765
  Cu2869 Cu 0.50000000 0.70000000 0.29411765
  Cu2870 Cu 0.10000000 0.50000000 0.29411765
  Cu2871 Cu 0.72000000 0.36000000 0.29411765
  Cu2872 Cu 0.32000000 0.16000000 0.29411765
  Cu2873 Cu 0.92000000 0.96000000 0.29411765
  Cu2874 Cu 0.52000000 0.76000000 0.29411765
  Cu2875 Cu 0.12000000 0.56000000 0.29411765
  Cu2876 Cu 0.85333333 0.42666667 0.35294118
  Cu2877 Cu 0.45333333 0.22666667 0.35294118
  Cu2878 Cu 0.05333333 0.02666667 0.35294118
  Cu2879 Cu 0.65333333 0.82666667 0.35294118
  Cu2880 Cu 0.25333333 0.62666667 0.35294118
  Cu2881 Cu 0.87333333 0.48666667 0.35294118
  Cu2882 Cu 0.47333333 0.28666667 0.35294118
  Cu2883 Cu 0.07333333 0.08666667 0.35294118
  Cu2884 Cu 0.67333333 0.88666667 0.35294118
  Cu2885 Cu 0.27333333 0.68666667 0.35294118
  Cu2886 Cu 0.89333333 0.54666667 0.35294118
  Cu2887 Cu 0.49333333 0.34666667 0.35294118
  Cu2888 Cu 0.09333333 0.14666667 0.35294118
  Cu2889 Cu 0.69333333 0.94666667 0.35294118
  Cu2890 Cu 0.29333333 0.74666667 0.35294118
  Cu2891 Cu 0.71333333 0.00666667 0.35294118
  Cu2892 Cu 0.91333333 0.60666667 0.35294118
  Cu2893 Cu 0.51333333 0.40666667 0.35294118
  Cu2894 Cu 0.11333333 0.20666667 0.35294118
  Cu2895 Cu 0.31333333 0.80666667 0.35294118
  Cu2896 Cu 0.73333333 0.06666667 0.35294118
  Cu2897 Cu 0.93333333 0.66666667 0.35294118
  Cu2898 Cu 0.53333333 0.46666667 0.35294118
  Cu2899 Cu 0.13333333 0.26666667 0.35294118
  Cu2900 Cu 0.33333333 0.86666667 0.35294118
  Cu2901 Cu 0.91333333 0.40666667 0.35294118
  Cu2902 Cu 0.51333333 0.20666667 0.35294118
  Cu2903 Cu 0.11333333 0.00666667 0.35294118
  Cu2904 Cu 0.71333333 0.80666667 0.35294118
  Cu2905 Cu 0.31333333 0.60666667 0.35294118
  Cu2906 Cu 0.93333333 0.46666667 0.35294118
  Cu2907 Cu 0.53333333 0.26666667 0.35294118
  Cu2908 Cu 0.13333333 0.06666667 0.35294118
  Cu2909 Cu 0.73333333 0.86666667 0.35294118
  Cu2910 Cu 0.33333333 0.66666667 0.35294118
  Cu2911 Cu 0.95333333 0.52666667 0.35294118
  Cu2912 Cu 0.55333333 0.32666667 0.35294118
  Cu2913 Cu 0.15333333 0.12666667 0.35294118
  Cu2914 Cu 0.75333333 0.92666667 0.35294118
  Cu2915 Cu 0.35333333 0.72666667 0.35294118
  Cu2916 Cu 0.97333333 0.58666667 0.35294118
  Cu2917 Cu 0.57333333 0.38666667 0.35294118
  Cu2918 Cu 0.17333333 0.18666667 0.35294118
  Cu2919 Cu 0.77333333 0.98666667 0.35294118
  Cu2920 Cu 0.37333333 0.78666667 0.35294118
  Cu2921 Cu 0.79333333 0.04666667 0.35294118
  Cu2922 Cu 0.99333333 0.64666667 0.35294118
  Cu2923 Cu 0.59333333 0.44666667 0.35294118
  Cu2924 Cu 0.19333333 0.24666667 0.35294118
  Cu2925 Cu 0.39333333 0.84666667 0.35294118
  Cu2926 Cu 0.97333333 0.38666667 0.35294118
  Cu2927 Cu 0.57333333 0.18666667 0.35294118
  Cu2928 Cu 0.77333333 0.78666667 0.35294118
  Cu2929 Cu 0.37333333 0.58666667 0.35294118
  Cu2930 Cu 0.17333333 0.98666667 0.35294118
  Cu2931 Cu 0.99333333 0.44666667 0.35294118
  Cu2932 Cu 0.59333333 0.24666667 0.35294118
  Cu2933 Cu 0.19333333 0.04666667 0.35294118
  Cu2934 Cu 0.79333333 0.84666667 0.35294118
  Cu2935 Cu 0.39333333 0.64666667 0.35294118
  Cu2936 Cu 0.61333333 0.30666667 0.35294118
  Cu2937 Cu 0.21333333 0.10666667 0.35294118
  Cu2938 Cu 0.81333333 0.90666667 0.35294118
  Cu2939 Cu 0.41333333 0.70666667 0.35294118
  Cu2940 Cu 0.01333333 0.50666667 0.35294118
  Cu2941 Cu 0.63333333 0.36666667 0.35294118
  Cu2942 Cu 0.23333333 0.16666667 0.35294118
  Cu2943 Cu 0.83333333 0.96666667 0.35294118
  Cu2944 Cu 0.43333333 0.76666667 0.35294118
  Cu2945 Cu 0.03333333 0.56666667 0.35294118
  Cu2946 Cu 0.85333333 0.02666667 0.35294118
  Cu2947 Cu 0.65333333 0.42666667 0.35294118
  Cu2948 Cu 0.25333333 0.22666667 0.35294118
  Cu2949 Cu 0.45333333 0.82666667 0.35294118
  Cu2950 Cu 0.05333333 0.62666667 0.35294118
  Cu2951 Cu 0.63333333 0.16666667 0.35294118
  Cu2952 Cu 0.83333333 0.76666667 0.35294118
  Cu2953 Cu 0.43333333 0.56666667 0.35294118
  Cu2954 Cu 0.03333333 0.36666667 0.35294118
  Cu2955 Cu 0.23333333 0.96666667 0.35294118
  Cu2956 Cu 0.65333333 0.22666667 0.35294118
  Cu2957 Cu 0.25333333 0.02666667 0.35294118
  Cu2958 Cu 0.85333333 0.82666667 0.35294118
  Cu2959 Cu 0.45333333 0.62666667 0.35294118
  Cu2960 Cu 0.05333333 0.42666667 0.35294118
  Cu2961 Cu 0.67333333 0.28666667 0.35294118
  Cu2962 Cu 0.27333333 0.08666667 0.35294118
  Cu2963 Cu 0.87333333 0.88666667 0.35294118
  Cu2964 Cu 0.47333333 0.68666667 0.35294118
  Cu2965 Cu 0.07333333 0.48666667 0.35294118
  Cu2966 Cu 0.69333333 0.34666667 0.35294118
  Cu2967 Cu 0.29333333 0.14666667 0.35294118
  Cu2968 Cu 0.89333333 0.94666667 0.35294118
  Cu2969 Cu 0.49333333 0.74666667 0.35294118
  Cu2970 Cu 0.09333333 0.54666667 0.35294118
  Cu2971 Cu 0.91333333 0.00666667 0.35294118
  Cu2972 Cu 0.71333333 0.40666667 0.35294118
  Cu2973 Cu 0.31333333 0.20666667 0.35294118
  Cu2974 Cu 0.51333333 0.80666667 0.35294118
  Cu2975 Cu 0.11333333 0.60666667 0.35294118
  Cu2976 Cu 0.69333333 0.14666667 0.35294118
  Cu2977 Cu 0.89333333 0.74666667 0.35294118
  Cu2978 Cu 0.49333333 0.54666667 0.35294118
  Cu2979 Cu 0.09333333 0.34666667 0.35294118
  Cu2980 Cu 0.29333333 0.94666667 0.35294118
  Cu2981 Cu 0.71333333 0.20666667 0.35294118
  Cu2982 Cu 0.31333333 0.00666667 0.35294118
  Cu2983 Cu 0.91333333 0.80666667 0.35294118
  Cu2984 Cu 0.51333333 0.60666667 0.35294118
  Cu2985 Cu 0.11333333 0.40666667 0.35294118
  Cu2986 Cu 0.73333333 0.26666667 0.35294118
  Cu2987 Cu 0.33333333 0.06666667 0.35294118
  Cu2988 Cu 0.93333333 0.86666667 0.35294118
  Cu2989 Cu 0.53333333 0.66666667 0.35294118
  Cu2990 Cu 0.13333333 0.46666667 0.35294118
  Cu2991 Cu 0.75333333 0.32666667 0.35294118
  Cu2992 Cu 0.35333333 0.12666667 0.35294118
  Cu2993 Cu 0.95333333 0.92666667 0.35294118
  Cu2994 Cu 0.55333333 0.72666667 0.35294118
  Cu2995 Cu 0.15333333 0.52666667 0.35294118
  Cu2996 Cu 0.77333333 0.38666667 0.35294118
  Cu2997 Cu 0.37333333 0.18666667 0.35294118
  Cu2998 Cu 0.97333333 0.98666667 0.35294118
  Cu2999 Cu 0.57333333 0.78666667 0.35294118
  Cu3000 Cu 0.17333333 0.58666667 0.35294118
  Cu3001 Cu 0.82666667 0.41333333 0.41176471
  Cu3002 Cu 0.42666667 0.21333333 0.41176471
  Cu3003 Cu 0.02666667 0.01333333 0.41176471
  Cu3004 Cu 0.62666667 0.81333333 0.41176471
  Cu3005 Cu 0.22666667 0.61333333 0.41176471
  Cu3006 Cu 0.84666667 0.47333333 0.41176471
  Cu3007 Cu 0.44666667 0.27333333 0.41176471
  Cu3008 Cu 0.04666667 0.07333333 0.41176471
  Cu3009 Cu 0.64666667 0.87333333 0.41176471
  Cu3010 Cu 0.24666667 0.67333333 0.41176471
  Cu3011 Cu 0.86666667 0.53333333 0.41176471
  Cu3012 Cu 0.46666667 0.33333333 0.41176471
  Cu3013 Cu 0.06666667 0.13333333 0.41176471
  Cu3014 Cu 0.66666667 0.93333333 0.41176471
  Cu3015 Cu 0.26666667 0.73333333 0.41176471
  Cu3016 Cu 0.88666667 0.59333333 0.41176471
  Cu3017 Cu 0.48666667 0.39333333 0.41176471
  Cu3018 Cu 0.08666667 0.19333333 0.41176471
  Cu3019 Cu 0.68666667 0.99333333 0.41176471
  Cu3020 Cu 0.28666667 0.79333333 0.41176471
  Cu3021 Cu 0.70666667 0.05333333 0.41176471
  Cu3022 Cu 0.90666667 0.65333333 0.41176471
  Cu3023 Cu 0.50666667 0.45333333 0.41176471
  Cu3024 Cu 0.10666667 0.25333333 0.41176471
  Cu3025 Cu 0.30666667 0.85333333 0.41176471
  Cu3026 Cu 0.88666667 0.39333333 0.41176471
  Cu3027 Cu 0.48666667 0.19333333 0.41176471
  Cu3028 Cu 0.68666667 0.79333333 0.41176471
  Cu3029 Cu 0.28666667 0.59333333 0.41176471
  Cu3030 Cu 0.08666667 0.99333333 0.41176471
  Cu3031 Cu 0.90666667 0.45333333 0.41176471
  Cu3032 Cu 0.50666667 0.25333333 0.41176471
  Cu3033 Cu 0.10666667 0.05333333 0.41176471
  Cu3034 Cu 0.70666667 0.85333333 0.41176471
  Cu3035 Cu 0.30666667 0.65333333 0.41176471
  Cu3036 Cu 0.92666667 0.51333333 0.41176471
  Cu3037 Cu 0.52666667 0.31333333 0.41176471
  Cu3038 Cu 0.12666667 0.11333333 0.41176471
  Cu3039 Cu 0.72666667 0.91333333 0.41176471
  Cu3040 Cu 0.32666667 0.71333333 0.41176471
  Cu3041 Cu 0.94666667 0.57333333 0.41176471
  Cu3042 Cu 0.54666667 0.37333333 0.41176471
  Cu3043 Cu 0.14666667 0.17333333 0.41176471
  Cu3044 Cu 0.74666667 0.97333333 0.41176471
  Cu3045 Cu 0.34666667 0.77333333 0.41176471
  Cu3046 Cu 0.76666667 0.03333333 0.41176471
  Cu3047 Cu 0.96666667 0.63333333 0.41176471
  Cu3048 Cu 0.56666667 0.43333333 0.41176471
  Cu3049 Cu 0.16666667 0.23333333 0.41176471
  Cu3050 Cu 0.36666667 0.83333333 0.41176471
  Cu3051 Cu 0.94666667 0.37333333 0.41176471
  Cu3052 Cu 0.54666667 0.17333333 0.41176471
  Cu3053 Cu 0.74666667 0.77333333 0.41176471
  Cu3054 Cu 0.34666667 0.57333333 0.41176471
  Cu3055 Cu 0.14666667 0.97333333 0.41176471
  Cu3056 Cu 0.96666667 0.43333333 0.41176471
  Cu3057 Cu 0.56666667 0.23333333 0.41176471
  Cu3058 Cu 0.16666667 0.03333333 0.41176471
  Cu3059 Cu 0.76666667 0.83333333 0.41176471
  Cu3060 Cu 0.36666667 0.63333333 0.41176471
  Cu3061 Cu 0.98666667 0.49333333 0.41176471
  Cu3062 Cu 0.58666667 0.29333333 0.41176471
  Cu3063 Cu 0.18666667 0.09333333 0.41176471
  Cu3064 Cu 0.78666667 0.89333333 0.41176471
  Cu3065 Cu 0.38666667 0.69333333 0.41176471
  Cu3066 Cu 0.60666667 0.35333333 0.41176471
  Cu3067 Cu 0.20666667 0.15333333 0.41176471
  Cu3068 Cu 0.80666667 0.95333333 0.41176471
  Cu3069 Cu 0.40666667 0.75333333 0.41176471
  Cu3070 Cu 0.00666667 0.55333333 0.41176471
  Cu3071 Cu 0.82666667 0.01333333 0.41176471
  Cu3072 Cu 0.62666667 0.41333333 0.41176471
  Cu3073 Cu 0.22666667 0.21333333 0.41176471
  Cu3074 Cu 0.42666667 0.81333333 0.41176471
  Cu3075 Cu 0.02666667 0.61333333 0.41176471
  Cu3076 Cu 0.60666667 0.15333333 0.41176471
  Cu3077 Cu 0.80666667 0.75333333 0.41176471
  Cu3078 Cu 0.40666667 0.55333333 0.41176471
  Cu3079 Cu 0.00666667 0.35333333 0.41176471
  Cu3080 Cu 0.20666667 0.95333333 0.41176471
  Cu3081 Cu 0.62666667 0.21333333 0.41176471
  Cu3082 Cu 0.22666667 0.01333333 0.41176471
  Cu3083 Cu 0.82666667 0.81333333 0.41176471
  Cu3084 Cu 0.42666667 0.61333333 0.41176471
  Cu3085 Cu 0.02666667 0.41333333 0.41176471
  Cu3086 Cu 0.64666667 0.27333333 0.41176471
  Cu3087 Cu 0.24666667 0.07333333 0.41176471
  Cu3088 Cu 0.84666667 0.87333333 0.41176471
  Cu3089 Cu 0.44666667 0.67333333 0.41176471
  Cu3090 Cu 0.04666667 0.47333333 0.41176471
  Cu3091 Cu 0.66666667 0.33333333 0.41176471
  Cu3092 Cu 0.26666667 0.13333333 0.41176471
  Cu3093 Cu 0.86666667 0.93333333 0.41176471
  Cu3094 Cu 0.46666667 0.73333333 0.41176471
  Cu3095 Cu 0.06666667 0.53333333 0.41176471
  Cu3096 Cu 0.68666667 0.39333333 0.41176471
  Cu3097 Cu 0.28666667 0.19333333 0.41176471
  Cu3098 Cu 0.88666667 0.99333333 0.41176471
  Cu3099 Cu 0.48666667 0.79333333 0.41176471
  Cu3100 Cu 0.08666667 0.59333333 0.41176471
  Cu3101 Cu 0.66666667 0.13333333 0.41176471
  Cu3102 Cu 0.86666667 0.73333333 0.41176471
  Cu3103 Cu 0.46666667 0.53333333 0.41176471
  Cu3104 Cu 0.06666667 0.33333333 0.41176471
  Cu3105 Cu 0.26666667 0.93333333 0.41176471
  Cu3106 Cu 0.68666667 0.19333333 0.41176471
  Cu3107 Cu 0.88666667 0.79333333 0.41176471
  Cu3108 Cu 0.48666667 0.59333333 0.41176471
  Cu3109 Cu 0.08666667 0.39333333 0.41176471
  Cu3110 Cu 0.28666667 0.99333333 0.41176471
  Cu3111 Cu 0.70666667 0.25333333 0.41176471
  Cu3112 Cu 0.30666667 0.05333333 0.41176471
  Cu3113 Cu 0.90666667 0.85333333 0.41176471
  Cu3114 Cu 0.50666667 0.65333333 0.41176471
  Cu3115 Cu 0.10666667 0.45333333 0.41176471
  Cu3116 Cu 0.72666667 0.31333333 0.41176471
  Cu3117 Cu 0.32666667 0.11333333 0.41176471
  Cu3118 Cu 0.92666667 0.91333333 0.41176471
  Cu3119 Cu 0.52666667 0.71333333 0.41176471
  Cu3120 Cu 0.12666667 0.51333333 0.41176471
  Cu3121 Cu 0.74666667 0.37333333 0.41176471
  Cu3122 Cu 0.34666667 0.17333333 0.41176471
  Cu3123 Cu 0.94666667 0.97333333 0.41176471
  Cu3124 Cu 0.54666667 0.77333333 0.41176471
  Cu3125 Cu 0.14666667 0.57333333 0.41176471
  Cu3126 Cu 0.80000000 0.40000000 0.47058824
  Cu3127 Cu 0.40000000 0.20000000 0.47058824
  Cu3128 Cu 0.00000000 0.00000000 0.47058824
  Cu3129 Cu 0.60000000 0.80000000 0.47058824
  Cu3130 Cu 0.20000000 0.60000000 0.47058824
  Cu3131 Cu 0.82000000 0.46000000 0.47058824
  Cu3132 Cu 0.42000000 0.26000000 0.47058824
  Cu3133 Cu 0.02000000 0.06000000 0.47058824
  Cu3134 Cu 0.62000000 0.86000000 0.47058824
  Cu3135 Cu 0.22000000 0.66000000 0.47058824
  Cu3136 Cu 0.84000000 0.52000000 0.47058824
  Cu3137 Cu 0.44000000 0.32000000 0.47058824
  Cu3138 Cu 0.04000000 0.12000000 0.47058824
  Cu3139 Cu 0.64000000 0.92000000 0.47058824
  Cu3140 Cu 0.24000000 0.72000000 0.47058824
  Cu3141 Cu 0.86000000 0.58000000 0.47058824
  Cu3142 Cu 0.46000000 0.38000000 0.47058824
  Cu3143 Cu 0.06000000 0.18000000 0.47058824
  Cu3144 Cu 0.66000000 0.98000000 0.47058824
  Cu3145 Cu 0.26000000 0.78000000 0.47058824
  Cu3146 Cu 0.68000000 0.04000000 0.47058824
  Cu3147 Cu 0.88000000 0.64000000 0.47058824
  Cu3148 Cu 0.48000000 0.44000000 0.47058824
  Cu3149 Cu 0.08000000 0.24000000 0.47058824
  Cu3150 Cu 0.28000000 0.84000000 0.47058824
  Cu3151 Cu 0.86000000 0.38000000 0.47058824
  Cu3152 Cu 0.46000000 0.18000000 0.47058824
  Cu3153 Cu 0.66000000 0.78000000 0.47058824
  Cu3154 Cu 0.26000000 0.58000000 0.47058824
  Cu3155 Cu 0.06000000 0.98000000 0.47058824
  Cu3156 Cu 0.88000000 0.44000000 0.47058824
  Cu3157 Cu 0.48000000 0.24000000 0.47058824
  Cu3158 Cu 0.08000000 0.04000000 0.47058824
  Cu3159 Cu 0.68000000 0.84000000 0.47058824
  Cu3160 Cu 0.28000000 0.64000000 0.47058824
  Cu3161 Cu 0.90000000 0.50000000 0.47058824
  Cu3162 Cu 0.50000000 0.30000000 0.47058824
  Cu3163 Cu 0.10000000 0.10000000 0.47058824
  Cu3164 Cu 0.70000000 0.90000000 0.47058824
  Cu3165 Cu 0.30000000 0.70000000 0.47058824
  Cu3166 Cu 0.92000000 0.56000000 0.47058824
  Cu3167 Cu 0.52000000 0.36000000 0.47058824
  Cu3168 Cu 0.12000000 0.16000000 0.47058824
  Cu3169 Cu 0.72000000 0.96000000 0.47058824
  Cu3170 Cu 0.32000000 0.76000000 0.47058824
  Cu3171 Cu 0.74000000 0.02000000 0.47058824
  Cu3172 Cu 0.94000000 0.62000000 0.47058824
  Cu3173 Cu 0.54000000 0.42000000 0.47058824
  Cu3174 Cu 0.14000000 0.22000000 0.47058824
  Cu3175 Cu 0.34000000 0.82000000 0.47058824
  Cu3176 Cu 0.92000000 0.36000000 0.47058824
  Cu3177 Cu 0.52000000 0.16000000 0.47058824
  Cu3178 Cu 0.72000000 0.76000000 0.47058824
  Cu3179 Cu 0.32000000 0.56000000 0.47058824
  Cu3180 Cu 0.12000000 0.96000000 0.47058824
  Cu3181 Cu 0.94000000 0.42000000 0.47058824
  Cu3182 Cu 0.54000000 0.22000000 0.47058824
  Cu3183 Cu 0.14000000 0.02000000 0.47058824
  Cu3184 Cu 0.74000000 0.82000000 0.47058824
  Cu3185 Cu 0.34000000 0.62000000 0.47058824
  Cu3186 Cu 0.96000000 0.48000000 0.47058824
  Cu3187 Cu 0.56000000 0.28000000 0.47058824
  Cu3188 Cu 0.16000000 0.08000000 0.47058824
  Cu3189 Cu 0.76000000 0.88000000 0.47058824
  Cu3190 Cu 0.36000000 0.68000000 0.47058824
  Cu3191 Cu 0.98000000 0.54000000 0.47058824
  Cu3192 Cu 0.58000000 0.34000000 0.47058824
  Cu3193 Cu 0.18000000 0.14000000 0.47058824
  Cu3194 Cu 0.78000000 0.94000000 0.47058824
  Cu3195 Cu 0.38000000 0.74000000 0.47058824
  Cu3196 Cu 0.80000000 0.00000000 0.47058824
  Cu3197 Cu 0.60000000 0.40000000 0.47058824
  Cu3198 Cu 0.20000000 0.20000000 0.47058824
  Cu3199 Cu 0.40000000 0.80000000 0.47058824
  Cu3200 Cu 0.00000000 0.60000000 0.47058824
  Cu3201 Cu 0.98000000 0.34000000 0.47058824
  Cu3202 Cu 0.58000000 0.14000000 0.47058824
  Cu3203 Cu 0.78000000 0.74000000 0.47058824
  Cu3204 Cu 0.38000000 0.54000000 0.47058824
  Cu3205 Cu 0.18000000 0.94000000 0.47058824
  Cu3206 Cu 0.60000000 0.20000000 0.47058824
  Cu3207 Cu 0.20000000 0.00000000 0.47058824
  Cu3208 Cu 0.80000000 0.80000000 0.47058824
  Cu3209 Cu 0.40000000 0.60000000 0.47058824
  Cu3210 Cu 0.00000000 0.40000000 0.47058824
  Cu3211 Cu 0.62000000 0.26000000 0.47058824
  Cu3212 Cu 0.22000000 0.06000000 0.47058824
  Cu3213 Cu 0.82000000 0.86000000 0.47058824
  Cu3214 Cu 0.42000000 0.66000000 0.47058824
  Cu3215 Cu 0.02000000 0.46000000 0.47058824
  Cu3216 Cu 0.64000000 0.32000000 0.47058824
  Cu3217 Cu 0.24000000 0.12000000 0.47058824
  Cu3218 Cu 0.84000000 0.92000000 0.47058824
  Cu3219 Cu 0.44000000 0.72000000 0.47058824
  Cu3220 Cu 0.04000000 0.52000000 0.47058824
  Cu3221 Cu 0.66000000 0.38000000 0.47058824
  Cu3222 Cu 0.26000000 0.18000000 0.47058824
  Cu3223 Cu 0.86000000 0.98000000 0.47058824
  Cu3224 Cu 0.46000000 0.78000000 0.47058824
  Cu3225 Cu 0.06000000 0.58000000 0.47058824
  Cu3226 Cu 0.64000000 0.12000000 0.47058824
  Cu3227 Cu 0.84000000 0.72000000 0.47058824
  Cu3228 Cu 0.44000000 0.52000000 0.47058824
  Cu3229 Cu 0.04000000 0.32000000 0.47058824
  Cu3230 Cu 0.24000000 0.92000000 0.47058824
  Cu3231 Cu 0.66000000 0.18000000 0.47058824
  Cu3232 Cu 0.86000000 0.78000000 0.47058824
  Cu3233 Cu 0.46000000 0.58000000 0.47058824
  Cu3234 Cu 0.06000000 0.38000000 0.47058824
  Cu3235 Cu 0.26000000 0.98000000 0.47058824
  Cu3236 Cu 0.68000000 0.24000000 0.47058824
  Cu3237 Cu 0.28000000 0.04000000 0.47058824
  Cu3238 Cu 0.88000000 0.84000000 0.47058824
  Cu3239 Cu 0.48000000 0.64000000 0.47058824
  Cu3240 Cu 0.08000000 0.44000000 0.47058824
  Cu3241 Cu 0.70000000 0.30000000 0.47058824
  Cu3242 Cu 0.30000000 0.10000000 0.47058824
  Cu3243 Cu 0.90000000 0.90000000 0.47058824
  Cu3244 Cu 0.50000000 0.70000000 0.47058824
  Cu3245 Cu 0.10000000 0.50000000 0.47058824
  Cu3246 Cu 0.72000000 0.36000000 0.47058824
  Cu3247 Cu 0.32000000 0.16000000 0.47058824
  Cu3248 Cu 0.92000000 0.96000000 0.47058824
  Cu3249 Cu 0.52000000 0.76000000 0.47058824
  Cu3250 Cu 0.12000000 0.56000000 0.47058824
  Cu3251 Cu 0.85333333 0.42666667 0.52941176
  Cu3252 Cu 0.45333333 0.22666667 0.52941176
  Cu3253 Cu 0.05333333 0.02666667 0.52941176
  Cu3254 Cu 0.65333333 0.82666667 0.52941176
  Cu3255 Cu 0.25333333 0.62666667 0.52941176
  Cu3256 Cu 0.87333333 0.48666667 0.52941176
  Cu3257 Cu 0.47333333 0.28666667 0.52941176
  Cu3258 Cu 0.07333333 0.08666667 0.52941176
  Cu3259 Cu 0.67333333 0.88666667 0.52941176
  Cu3260 Cu 0.27333333 0.68666667 0.52941176
  Cu3261 Cu 0.89333333 0.54666667 0.52941176
  Cu3262 Cu 0.49333333 0.34666667 0.52941176
  Cu3263 Cu 0.09333333 0.14666667 0.52941176
  Cu3264 Cu 0.69333333 0.94666667 0.52941176
  Cu3265 Cu 0.29333333 0.74666667 0.52941176
  Cu3266 Cu 0.71333333 0.00666667 0.52941176
  Cu3267 Cu 0.91333333 0.60666667 0.52941176
  Cu3268 Cu 0.51333333 0.40666667 0.52941176
  Cu3269 Cu 0.11333333 0.20666667 0.52941176
  Cu3270 Cu 0.31333333 0.80666667 0.52941176
  Cu3271 Cu 0.73333333 0.06666667 0.52941176
  Cu3272 Cu 0.93333333 0.66666667 0.52941176
  Cu3273 Cu 0.53333333 0.46666667 0.52941176
  Cu3274 Cu 0.13333333 0.26666667 0.52941176
  Cu3275 Cu 0.33333333 0.86666667 0.52941176
  Cu3276 Cu 0.91333333 0.40666667 0.52941176
  Cu3277 Cu 0.51333333 0.20666667 0.52941176
  Cu3278 Cu 0.11333333 0.00666667 0.52941176
  Cu3279 Cu 0.71333333 0.80666667 0.52941176
  Cu3280 Cu 0.31333333 0.60666667 0.52941176
  Cu3281 Cu 0.93333333 0.46666667 0.52941176
  Cu3282 Cu 0.53333333 0.26666667 0.52941176
  Cu3283 Cu 0.13333333 0.06666667 0.52941176
  Cu3284 Cu 0.73333333 0.86666667 0.52941176
  Cu3285 Cu 0.33333333 0.66666667 0.52941176
  Cu3286 Cu 0.95333333 0.52666667 0.52941176
  Cu3287 Cu 0.55333333 0.32666667 0.52941176
  Cu3288 Cu 0.15333333 0.12666667 0.52941176
  Cu3289 Cu 0.75333333 0.92666667 0.52941176
  Cu3290 Cu 0.35333333 0.72666667 0.52941176
  Cu3291 Cu 0.97333333 0.58666667 0.52941176
  Cu3292 Cu 0.57333333 0.38666667 0.52941176
  Cu3293 Cu 0.17333333 0.18666667 0.52941176
  Cu3294 Cu 0.77333333 0.98666667 0.52941176
  Cu3295 Cu 0.37333333 0.78666667 0.52941176
  Cu3296 Cu 0.79333333 0.04666667 0.52941176
  Cu3297 Cu 0.99333333 0.64666667 0.52941176
  Cu3298 Cu 0.59333333 0.44666667 0.52941176
  Cu3299 Cu 0.19333333 0.24666667 0.52941176
  Cu3300 Cu 0.39333333 0.84666667 0.52941176
  Cu3301 Cu 0.97333333 0.38666667 0.52941176
  Cu3302 Cu 0.57333333 0.18666667 0.52941176
  Cu3303 Cu 0.77333333 0.78666667 0.52941176
  Cu3304 Cu 0.37333333 0.58666667 0.52941176
  Cu3305 Cu 0.17333333 0.98666667 0.52941176
  Cu3306 Cu 0.99333333 0.44666667 0.52941176
  Cu3307 Cu 0.59333333 0.24666667 0.52941176
  Cu3308 Cu 0.19333333 0.04666667 0.52941176
  Cu3309 Cu 0.79333333 0.84666667 0.52941176
  Cu3310 Cu 0.39333333 0.64666667 0.52941176
  Cu3311 Cu 0.61333333 0.30666667 0.52941176
  Cu3312 Cu 0.21333333 0.10666667 0.52941176
  Cu3313 Cu 0.81333333 0.90666667 0.52941176
  Cu3314 Cu 0.41333333 0.70666667 0.52941176
  Cu3315 Cu 0.01333333 0.50666667 0.52941176
  Cu3316 Cu 0.63333333 0.36666667 0.52941176
  Cu3317 Cu 0.23333333 0.16666667 0.52941176
  Cu3318 Cu 0.83333333 0.96666667 0.52941176
  Cu3319 Cu 0.43333333 0.76666667 0.52941176
  Cu3320 Cu 0.03333333 0.56666667 0.52941176
  Cu3321 Cu 0.85333333 0.02666667 0.52941176
  Cu3322 Cu 0.65333333 0.42666667 0.52941176
  Cu3323 Cu 0.25333333 0.22666667 0.52941176
  Cu3324 Cu 0.45333333 0.82666667 0.52941176
  Cu3325 Cu 0.05333333 0.62666667 0.52941176
  Cu3326 Cu 0.63333333 0.16666667 0.52941176
  Cu3327 Cu 0.83333333 0.76666667 0.52941176
  Cu3328 Cu 0.43333333 0.56666667 0.52941176
  Cu3329 Cu 0.03333333 0.36666667 0.52941176
  Cu3330 Cu 0.23333333 0.96666667 0.52941176
  Cu3331 Cu 0.65333333 0.22666667 0.52941176
  Cu3332 Cu 0.25333333 0.02666667 0.52941176
  Cu3333 Cu 0.85333333 0.82666667 0.52941176
  Cu3334 Cu 0.45333333 0.62666667 0.52941176
  Cu3335 Cu 0.05333333 0.42666667 0.52941176
  Cu3336 Cu 0.67333333 0.28666667 0.52941176
  Cu3337 Cu 0.27333333 0.08666667 0.52941176
  Cu3338 Cu 0.87333333 0.88666667 0.52941176
  Cu3339 Cu 0.47333333 0.68666667 0.52941176
  Cu3340 Cu 0.07333333 0.48666667 0.52941176
  Cu3341 Cu 0.69333333 0.34666667 0.52941176
  Cu3342 Cu 0.29333333 0.14666667 0.52941176
  Cu3343 Cu 0.89333333 0.94666667 0.52941176
  Cu3344 Cu 0.49333333 0.74666667 0.52941176
  Cu3345 Cu 0.09333333 0.54666667 0.52941176
  Cu3346 Cu 0.91333333 0.00666667 0.52941176
  Cu3347 Cu 0.71333333 0.40666667 0.52941176
  Cu3348 Cu 0.31333333 0.20666667 0.52941176
  Cu3349 Cu 0.51333333 0.80666667 0.52941176
  Cu3350 Cu 0.11333333 0.60666667 0.52941176
  Cu3351 Cu 0.69333333 0.14666667 0.52941176
  Cu3352 Cu 0.89333333 0.74666667 0.52941176
  Cu3353 Cu 0.49333333 0.54666667 0.52941176
  Cu3354 Cu 0.09333333 0.34666667 0.52941176
  Cu3355 Cu 0.29333333 0.94666667 0.52941176
  Cu3356 Cu 0.71333333 0.20666667 0.52941176
  Cu3357 Cu 0.31333333 0.00666667 0.52941176
  Cu3358 Cu 0.91333333 0.80666667 0.52941176
  Cu3359 Cu 0.51333333 0.60666667 0.52941176
  Cu3360 Cu 0.11333333 0.40666667 0.52941176
  Cu3361 Cu 0.73333333 0.26666667 0.52941176
  Cu3362 Cu 0.33333333 0.06666667 0.52941176
  Cu3363 Cu 0.93333333 0.86666667 0.52941176
  Cu3364 Cu 0.53333333 0.66666667 0.52941176
  Cu3365 Cu 0.13333333 0.46666667 0.52941176
  Cu3366 Cu 0.75333333 0.32666667 0.52941176
  Cu3367 Cu 0.35333333 0.12666667 0.52941176
  Cu3368 Cu 0.95333333 0.92666667 0.52941176
  Cu3369 Cu 0.55333333 0.72666667 0.52941176
  Cu3370 Cu 0.15333333 0.52666667 0.52941176
  Cu3371 Cu 0.77333333 0.38666667 0.52941176
  Cu3372 Cu 0.37333333 0.18666667 0.52941176
  Cu3373 Cu 0.97333333 0.98666667 0.52941176
  Cu3374 Cu 0.57333333 0.78666667 0.52941176
  Cu3375 Cu 0.17333333 0.58666667 0.52941176
  Cu3376 Cu 0.82666667 0.41333333 0.58823529
  Cu3377 Cu 0.42666667 0.21333333 0.58823529
  Cu3378 Cu 0.02666667 0.01333333 0.58823529
  Cu3379 Cu 0.62666667 0.81333333 0.58823529
  Cu3380 Cu 0.22666667 0.61333333 0.58823529
  Cu3381 Cu 0.84666667 0.47333333 0.58823529
  Cu3382 Cu 0.44666667 0.27333333 0.58823529
  Cu3383 Cu 0.04666667 0.07333333 0.58823529
  Cu3384 Cu 0.64666667 0.87333333 0.58823529
  Cu3385 Cu 0.24666667 0.67333333 0.58823529
  Cu3386 Cu 0.86666667 0.53333333 0.58823529
  Cu3387 Cu 0.46666667 0.33333333 0.58823529
  Cu3388 Cu 0.06666667 0.13333333 0.58823529
  Cu3389 Cu 0.66666667 0.93333333 0.58823529
  Cu3390 Cu 0.26666667 0.73333333 0.58823529
  Cu3391 Cu 0.88666667 0.59333333 0.58823529
  Cu3392 Cu 0.48666667 0.39333333 0.58823529
  Cu3393 Cu 0.08666667 0.19333333 0.58823529
  Cu3394 Cu 0.68666667 0.99333333 0.58823529
  Cu3395 Cu 0.28666667 0.79333333 0.58823529
  Cu3396 Cu 0.70666667 0.05333333 0.58823529
  Cu3397 Cu 0.90666667 0.65333333 0.58823529
  Cu3398 Cu 0.50666667 0.45333333 0.58823529
  Cu3399 Cu 0.10666667 0.25333333 0.58823529
  Cu3400 Cu 0.30666667 0.85333333 0.58823529
  Cu3401 Cu 0.88666667 0.39333333 0.58823529
  Cu3402 Cu 0.48666667 0.19333333 0.58823529
  Cu3403 Cu 0.68666667 0.79333333 0.58823529
  Cu3404 Cu 0.28666667 0.59333333 0.58823529
  Cu3405 Cu 0.08666667 0.99333333 0.58823529
  Cu3406 Cu 0.90666667 0.45333333 0.58823529
  Cu3407 Cu 0.50666667 0.25333333 0.58823529
  Cu3408 Cu 0.10666667 0.05333333 0.58823529
  Cu3409 Cu 0.70666667 0.85333333 0.58823529
  Cu3410 Cu 0.30666667 0.65333333 0.58823529
  Cu3411 Cu 0.92666667 0.51333333 0.58823529
  Cu3412 Cu 0.52666667 0.31333333 0.58823529
  Cu3413 Cu 0.12666667 0.11333333 0.58823529
  Cu3414 Cu 0.72666667 0.91333333 0.58823529
  Cu3415 Cu 0.32666667 0.71333333 0.58823529
  Cu3416 Cu 0.94666667 0.57333333 0.58823529
  Cu3417 Cu 0.54666667 0.37333333 0.58823529
  Cu3418 Cu 0.14666667 0.17333333 0.58823529
  Cu3419 Cu 0.74666667 0.97333333 0.58823529
  Cu3420 Cu 0.34666667 0.77333333 0.58823529
  Cu3421 Cu 0.76666667 0.03333333 0.58823529
  Cu3422 Cu 0.96666667 0.63333333 0.58823529
  Cu3423 Cu 0.56666667 0.43333333 0.58823529
  Cu3424 Cu 0.16666667 0.23333333 0.58823529
  Cu3425 Cu 0.36666667 0.83333333 0.58823529
  Cu3426 Cu 0.94666667 0.37333333 0.58823529
  Cu3427 Cu 0.54666667 0.17333333 0.58823529
  Cu3428 Cu 0.74666667 0.77333333 0.58823529
  Cu3429 Cu 0.34666667 0.57333333 0.58823529
  Cu3430 Cu 0.14666667 0.97333333 0.58823529
  Cu3431 Cu 0.96666667 0.43333333 0.58823529
  Cu3432 Cu 0.56666667 0.23333333 0.58823529
  Cu3433 Cu 0.16666667 0.03333333 0.58823529
  Cu3434 Cu 0.76666667 0.83333333 0.58823529
  Cu3435 Cu 0.36666667 0.63333333 0.58823529
  Cu3436 Cu 0.98666667 0.49333333 0.58823529
  Cu3437 Cu 0.58666667 0.29333333 0.58823529
  Cu3438 Cu 0.18666667 0.09333333 0.58823529
  Cu3439 Cu 0.78666667 0.89333333 0.58823529
  Cu3440 Cu 0.38666667 0.69333333 0.58823529
  Cu3441 Cu 0.60666667 0.35333333 0.58823529
  Cu3442 Cu 0.20666667 0.15333333 0.58823529
  Cu3443 Cu 0.80666667 0.95333333 0.58823529
  Cu3444 Cu 0.40666667 0.75333333 0.58823529
  Cu3445 Cu 0.00666667 0.55333333 0.58823529
  Cu3446 Cu 0.82666667 0.01333333 0.58823529
  Cu3447 Cu 0.62666667 0.41333333 0.58823529
  Cu3448 Cu 0.22666667 0.21333333 0.58823529
  Cu3449 Cu 0.42666667 0.81333333 0.58823529
  Cu3450 Cu 0.02666667 0.61333333 0.58823529
  Cu3451 Cu 0.60666667 0.15333333 0.58823529
  Cu3452 Cu 0.80666667 0.75333333 0.58823529
  Cu3453 Cu 0.40666667 0.55333333 0.58823529
  Cu3454 Cu 0.00666667 0.35333333 0.58823529
  Cu3455 Cu 0.20666667 0.95333333 0.58823529
  Cu3456 Cu 0.62666667 0.21333333 0.58823529
  Cu3457 Cu 0.22666667 0.01333333 0.58823529
  Cu3458 Cu 0.82666667 0.81333333 0.58823529
  Cu3459 Cu 0.42666667 0.61333333 0.58823529
  Cu3460 Cu 0.02666667 0.41333333 0.58823529
  Cu3461 Cu 0.64666667 0.27333333 0.58823529
  Cu3462 Cu 0.24666667 0.07333333 0.58823529
  Cu3463 Cu 0.84666667 0.87333333 0.58823529
  Cu3464 Cu 0.44666667 0.67333333 0.58823529
  Cu3465 Cu 0.04666667 0.47333333 0.58823529
  Cu3466 Cu 0.66666667 0.33333333 0.58823529
  Cu3467 Cu 0.26666667 0.13333333 0.58823529
  Cu3468 Cu 0.86666667 0.93333333 0.58823529
  Cu3469 Cu 0.46666667 0.73333333 0.58823529
  Cu3470 Cu 0.06666667 0.53333333 0.58823529
  Cu3471 Cu 0.68666667 0.39333333 0.58823529
  Cu3472 Cu 0.28666667 0.19333333 0.58823529
  Cu3473 Cu 0.88666667 0.99333333 0.58823529
  Cu3474 Cu 0.48666667 0.79333333 0.58823529
  Cu3475 Cu 0.08666667 0.59333333 0.58823529
  Cu3476 Cu 0.66666667 0.13333333 0.58823529
  Cu3477 Cu 0.86666667 0.73333333 0.58823529
  Cu3478 Cu 0.46666667 0.53333333 0.58823529
  Cu3479 Cu 0.06666667 0.33333333 0.58823529
  Cu3480 Cu 0.26666667 0.93333333 0.58823529
  Cu3481 Cu 0.68666667 0.19333333 0.58823529
  Cu3482 Cu 0.88666667 0.79333333 0.58823529
  Cu3483 Cu 0.48666667 0.59333333 0.58823529
  Cu3484 Cu 0.08666667 0.39333333 0.58823529
  Cu3485 Cu 0.28666667 0.99333333 0.58823529
  Cu3486 Cu 0.70666667 0.25333333 0.58823529
  Cu3487 Cu 0.30666667 0.05333333 0.58823529
  Cu3488 Cu 0.90666667 0.85333333 0.58823529
  Cu3489 Cu 0.50666667 0.65333333 0.58823529
  Cu3490 Cu 0.10666667 0.45333333 0.58823529
  Cu3491 Cu 0.72666667 0.31333333 0.58823529
  Cu3492 Cu 0.32666667 0.11333333 0.58823529
  Cu3493 Cu 0.92666667 0.91333333 0.58823529
  Cu3494 Cu 0.52666667 0.71333333 0.58823529
  Cu3495 Cu 0.12666667 0.51333333 0.58823529
  Cu3496 Cu 0.74666667 0.37333333 0.58823529
  Cu3497 Cu 0.34666667 0.17333333 0.58823529
  Cu3498 Cu 0.94666667 0.97333333 0.58823529
  Cu3499 Cu 0.54666667 0.77333333 0.58823529
  Cu3500 Cu 0.14666667 0.57333333 0.58823529
  Cu3501 Cu 0.80000000 0.40000000 0.64705882
  Cu3502 Cu 0.40000000 0.20000000 0.64705882
  Cu3503 Cu 0.00000000 0.00000000 0.64705882
  Cu3504 Cu 0.60000000 0.80000000 0.64705882
  Cu3505 Cu 0.20000000 0.60000000 0.64705882
  Cu3506 Cu 0.82000000 0.46000000 0.64705882
  Cu3507 Cu 0.42000000 0.26000000 0.64705882
  Cu3508 Cu 0.02000000 0.06000000 0.64705882
  Cu3509 Cu 0.62000000 0.86000000 0.64705882
  Cu3510 Cu 0.22000000 0.66000000 0.64705882
  Cu3511 Cu 0.84000000 0.52000000 0.64705882
  Cu3512 Cu 0.44000000 0.32000000 0.64705882
  Cu3513 Cu 0.04000000 0.12000000 0.64705882
  Cu3514 Cu 0.64000000 0.92000000 0.64705882
  Cu3515 Cu 0.24000000 0.72000000 0.64705882
  Cu3516 Cu 0.86000000 0.58000000 0.64705882
  Cu3517 Cu 0.46000000 0.38000000 0.64705882
  Cu3518 Cu 0.06000000 0.18000000 0.64705882
  Cu3519 Cu 0.66000000 0.98000000 0.64705882
  Cu3520 Cu 0.26000000 0.78000000 0.64705882
  Cu3521 Cu 0.68000000 0.04000000 0.64705882
  Cu3522 Cu 0.88000000 0.64000000 0.64705882
  Cu3523 Cu 0.48000000 0.44000000 0.64705882
  Cu3524 Cu 0.08000000 0.24000000 0.64705882
  Cu3525 Cu 0.28000000 0.84000000 0.64705882
  Cu3526 Cu 0.86000000 0.38000000 0.64705882
  Cu3527 Cu 0.46000000 0.18000000 0.64705882
  Cu3528 Cu 0.66000000 0.78000000 0.64705882
  Cu3529 Cu 0.26000000 0.58000000 0.64705882
  Cu3530 Cu 0.06000000 0.98000000 0.64705882
  Cu3531 Cu 0.88000000 0.44000000 0.64705882
  Cu3532 Cu 0.48000000 0.24000000 0.64705882
  Cu3533 Cu 0.08000000 0.04000000 0.64705882
  Cu3534 Cu 0.68000000 0.84000000 0.64705882
  Cu3535 Cu 0.28000000 0.64000000 0.64705882
  Cu3536 Cu 0.90000000 0.50000000 0.64705882
  Cu3537 Cu 0.50000000 0.30000000 0.64705882
  Cu3538 Cu 0.10000000 0.10000000 0.64705882
  Cu3539 Cu 0.70000000 0.90000000 0.64705882
  Cu3540 Cu 0.30000000 0.70000000 0.64705882
  Cu3541 Cu 0.92000000 0.56000000 0.64705882
  Cu3542 Cu 0.52000000 0.36000000 0.64705882
  Cu3543 Cu 0.12000000 0.16000000 0.64705882
  Cu3544 Cu 0.72000000 0.96000000 0.64705882
  Cu3545 Cu 0.32000000 0.76000000 0.64705882
  Cu3546 Cu 0.74000000 0.02000000 0.64705882
  Cu3547 Cu 0.94000000 0.62000000 0.64705882
  Cu3548 Cu 0.54000000 0.42000000 0.64705882
  Cu3549 Cu 0.14000000 0.22000000 0.64705882
  Cu3550 Cu 0.34000000 0.82000000 0.64705882
  Cu3551 Cu 0.92000000 0.36000000 0.64705882
  Cu3552 Cu 0.52000000 0.16000000 0.64705882
  Cu3553 Cu 0.72000000 0.76000000 0.64705882
  Cu3554 Cu 0.32000000 0.56000000 0.64705882
  Cu3555 Cu 0.12000000 0.96000000 0.64705882
  Cu3556 Cu 0.94000000 0.42000000 0.64705882
  Cu3557 Cu 0.54000000 0.22000000 0.64705882
  Cu3558 Cu 0.14000000 0.02000000 0.64705882
  Cu3559 Cu 0.74000000 0.82000000 0.64705882
  Cu3560 Cu 0.34000000 0.62000000 0.64705882
  Cu3561 Cu 0.96000000 0.48000000 0.64705882
  Cu3562 Cu 0.56000000 0.28000000 0.64705882
  Cu3563 Cu 0.16000000 0.08000000 0.64705882
  Cu3564 Cu 0.76000000 0.88000000 0.64705882
  Cu3565 Cu 0.36000000 0.68000000 0.64705882
  Cu3566 Cu 0.98000000 0.54000000 0.64705882
  Cu3567 Cu 0.58000000 0.34000000 0.64705882
  Cu3568 Cu 0.18000000 0.14000000 0.64705882
  Cu3569 Cu 0.78000000 0.94000000 0.64705882
  Cu3570 Cu 0.38000000 0.74000000 0.64705882
  Cu3571 Cu 0.80000000 0.00000000 0.64705882
  Cu3572 Cu 0.60000000 0.40000000 0.64705882
  Cu3573 Cu 0.20000000 0.20000000 0.64705882
  Cu3574 Cu 0.40000000 0.80000000 0.64705882
  Cu3575 Cu 0.00000000 0.60000000 0.64705882
  Cu3576 Cu 0.98000000 0.34000000 0.64705882
  Cu3577 Cu 0.58000000 0.14000000 0.64705882
  Cu3578 Cu 0.78000000 0.74000000 0.64705882
  Cu3579 Cu 0.38000000 0.54000000 0.64705882
  Cu3580 Cu 0.18000000 0.94000000 0.64705882
  Cu3581 Cu 0.60000000 0.20000000 0.64705882
  Cu3582 Cu 0.20000000 0.00000000 0.64705882
  Cu3583 Cu 0.80000000 0.80000000 0.64705882
  Cu3584 Cu 0.40000000 0.60000000 0.64705882
  Cu3585 Cu 0.00000000 0.40000000 0.64705882
  Cu3586 Cu 0.62000000 0.26000000 0.64705882
  Cu3587 Cu 0.22000000 0.06000000 0.64705882
  Cu3588 Cu 0.82000000 0.86000000 0.64705882
  Cu3589 Cu 0.42000000 0.66000000 0.64705882
  Cu3590 Cu 0.02000000 0.46000000 0.64705882
  Cu3591 Cu 0.64000000 0.32000000 0.64705882
  Cu3592 Cu 0.24000000 0.12000000 0.64705882
  Cu3593 Cu 0.84000000 0.92000000 0.64705882
  Cu3594 Cu 0.44000000 0.72000000 0.64705882
  Cu3595 Cu 0.04000000 0.52000000 0.64705882
  Cu3596 Cu 0.66000000 0.38000000 0.64705882
  Cu3597 Cu 0.26000000 0.18000000 0.64705882
  Cu3598 Cu 0.86000000 0.98000000 0.64705882
  Cu3599 Cu 0.46000000 0.78000000 0.64705882
  Cu3600 Cu 0.06000000 0.58000000 0.64705882
  Cu3601 Cu 0.64000000 0.12000000 0.64705882
  Cu3602 Cu 0.84000000 0.72000000 0.64705882
  Cu3603 Cu 0.44000000 0.52000000 0.64705882
  Cu3604 Cu 0.04000000 0.32000000 0.64705882
  Cu3605 Cu 0.24000000 0.92000000 0.64705882
  Cu3606 Cu 0.66000000 0.18000000 0.64705882
  Cu3607 Cu 0.86000000 0.78000000 0.64705882
  Cu3608 Cu 0.46000000 0.58000000 0.64705882
  Cu3609 Cu 0.06000000 0.38000000 0.64705882
  Cu3610 Cu 0.26000000 0.98000000 0.64705882
  Cu3611 Cu 0.68000000 0.24000000 0.64705882
  Cu3612 Cu 0.28000000 0.04000000 0.64705882
  Cu3613 Cu 0.88000000 0.84000000 0.64705882
  Cu3614 Cu 0.48000000 0.64000000 0.64705882
  Cu3615 Cu 0.08000000 0.44000000 0.64705882
  Cu3616 Cu 0.70000000 0.30000000 0.64705882
  Cu3617 Cu 0.30000000 0.10000000 0.64705882
  Cu3618 Cu 0.90000000 0.90000000 0.64705882
  Cu3619 Cu 0.50000000 0.70000000 0.64705882
  Cu3620 Cu 0.10000000 0.50000000 0.64705882
  Cu3621 Cu 0.72000000 0.36000000 0.64705882
  Cu3622 Cu 0.32000000 0.16000000 0.64705882
  Cu3623 Cu 0.92000000 0.96000000 0.64705882
  Cu3624 Cu 0.52000000 0.76000000 0.64705882
  Cu3625 Cu 0.12000000 0.56000000 0.64705882
  Cu3626 Cu 0.85333333 0.42666667 0.70588235
  Cu3627 Cu 0.45333333 0.22666667 0.70588235
  Cu3628 Cu 0.05333333 0.02666667 0.70588235
  Cu3629 Cu 0.65333333 0.82666667 0.70588235
  Cu3630 Cu 0.25333333 0.62666667 0.70588235
  Cu3631 Cu 0.87333333 0.48666667 0.70588235
  Cu3632 Cu 0.47333333 0.28666667 0.70588235
  Cu3633 Cu 0.07333333 0.08666667 0.70588235
  Cu3634 Cu 0.67333333 0.88666667 0.70588235
  Cu3635 Cu 0.27333333 0.68666667 0.70588235
  Cu3636 Cu 0.89333333 0.54666667 0.70588235
  Cu3637 Cu 0.49333333 0.34666667 0.70588235
  Cu3638 Cu 0.09333333 0.14666667 0.70588235
  Cu3639 Cu 0.69333333 0.94666667 0.70588235
  Cu3640 Cu 0.29333333 0.74666667 0.70588235
  Cu3641 Cu 0.71333333 0.00666667 0.70588235
  Cu3642 Cu 0.91333333 0.60666667 0.70588235
  Cu3643 Cu 0.51333333 0.40666667 0.70588235
  Cu3644 Cu 0.11333333 0.20666667 0.70588235
  Cu3645 Cu 0.31333333 0.80666667 0.70588235
  Cu3646 Cu 0.73333333 0.06666667 0.70588235
  Cu3647 Cu 0.93333333 0.66666667 0.70588235
  Cu3648 Cu 0.53333333 0.46666667 0.70588235
  Cu3649 Cu 0.13333333 0.26666667 0.70588235
  Cu3650 Cu 0.33333333 0.86666667 0.70588235
  Cu3651 Cu 0.91333333 0.40666667 0.70588235
  Cu3652 Cu 0.51333333 0.20666667 0.70588235
  Cu3653 Cu 0.11333333 0.00666667 0.70588235
  Cu3654 Cu 0.71333333 0.80666667 0.70588235
  Cu3655 Cu 0.31333333 0.60666667 0.70588235
  Cu3656 Cu 0.93333333 0.46666667 0.70588235
  Cu3657 Cu 0.53333333 0.26666667 0.70588235
  Cu3658 Cu 0.13333333 0.06666667 0.70588235
  Cu3659 Cu 0.73333333 0.86666667 0.70588235
  Cu3660 Cu 0.33333333 0.66666667 0.70588235
  Cu3661 Cu 0.95333333 0.52666667 0.70588235
  Cu3662 Cu 0.55333333 0.32666667 0.70588235
  Cu3663 Cu 0.15333333 0.12666667 0.70588235
  Cu3664 Cu 0.75333333 0.92666667 0.70588235
  Cu3665 Cu 0.35333333 0.72666667 0.70588235
  Cu3666 Cu 0.97333333 0.58666667 0.70588235
  Cu3667 Cu 0.57333333 0.38666667 0.70588235
  Cu3668 Cu 0.17333333 0.18666667 0.70588235
  Cu3669 Cu 0.77333333 0.98666667 0.70588235
  Cu3670 Cu 0.37333333 0.78666667 0.70588235
  Cu3671 Cu 0.79333333 0.04666667 0.70588235
  Cu3672 Cu 0.99333333 0.64666667 0.70588235
  Cu3673 Cu 0.59333333 0.44666667 0.70588235
  Cu3674 Cu 0.19333333 0.24666667 0.70588235
  Cu3675 Cu 0.39333333 0.84666667 0.70588235
  Cu3676 Cu 0.97333333 0.38666667 0.70588235
  Cu3677 Cu 0.57333333 0.18666667 0.70588235
  Cu3678 Cu 0.77333333 0.78666667 0.70588235
  Cu3679 Cu 0.37333333 0.58666667 0.70588235
  Cu3680 Cu 0.17333333 0.98666667 0.70588235
  Cu3681 Cu 0.99333333 0.44666667 0.70588235
  Cu3682 Cu 0.59333333 0.24666667 0.70588235
  Cu3683 Cu 0.19333333 0.04666667 0.70588235
  Cu3684 Cu 0.79333333 0.84666667 0.70588235
  Cu3685 Cu 0.39333333 0.64666667 0.70588235
  Cu3686 Cu 0.61333333 0.30666667 0.70588235
  Cu3687 Cu 0.21333333 0.10666667 0.70588235
  Cu3688 Cu 0.81333333 0.90666667 0.70588235
  Cu3689 Cu 0.41333333 0.70666667 0.70588235
  Cu3690 Cu 0.01333333 0.50666667 0.70588235
  Cu3691 Cu 0.63333333 0.36666667 0.70588235
  Cu3692 Cu 0.23333333 0.16666667 0.70588235
  Cu3693 Cu 0.83333333 0.96666667 0.70588235
  Cu3694 Cu 0.43333333 0.76666667 0.70588235
  Cu3695 Cu 0.03333333 0.56666667 0.70588235
  Cu3696 Cu 0.85333333 0.02666667 0.70588235
  Cu3697 Cu 0.65333333 0.42666667 0.70588235
  Cu3698 Cu 0.25333333 0.22666667 0.70588235
  Cu3699 Cu 0.45333333 0.82666667 0.70588235
  Cu3700 Cu 0.05333333 0.62666667 0.70588235
  Cu3701 Cu 0.63333333 0.16666667 0.70588235
  Cu3702 Cu 0.83333333 0.76666667 0.70588235
  Cu3703 Cu 0.43333333 0.56666667 0.70588235
  Cu3704 Cu 0.03333333 0.36666667 0.70588235
  Cu3705 Cu 0.23333333 0.96666667 0.70588235
  Cu3706 Cu 0.65333333 0.22666667 0.70588235
  Cu3707 Cu 0.25333333 0.02666667 0.70588235
  Cu3708 Cu 0.85333333 0.82666667 0.70588235
  Cu3709 Cu 0.45333333 0.62666667 0.70588235
  Cu3710 Cu 0.05333333 0.42666667 0.70588235
  Cu3711 Cu 0.67333333 0.28666667 0.70588235
  Cu3712 Cu 0.27333333 0.08666667 0.70588235
  Cu3713 Cu 0.87333333 0.88666667 0.70588235
  Cu3714 Cu 0.47333333 0.68666667 0.70588235
  Cu3715 Cu 0.07333333 0.48666667 0.70588235
  Cu3716 Cu 0.69333333 0.34666667 0.70588235
  Cu3717 Cu 0.29333333 0.14666667 0.70588235
  Cu3718 Cu 0.89333333 0.94666667 0.70588235
  Cu3719 Cu 0.49333333 0.74666667 0.70588235
  Cu3720 Cu 0.09333333 0.54666667 0.70588235
  Cu3721 Cu 0.91333333 0.00666667 0.70588235
  Cu3722 Cu 0.71333333 0.40666667 0.70588235
  Cu3723 Cu 0.31333333 0.20666667 0.70588235
  Cu3724 Cu 0.51333333 0.80666667 0.70588235
  Cu3725 Cu 0.11333333 0.60666667 0.70588235
  Cu3726 Cu 0.69333333 0.14666667 0.70588235
  Cu3727 Cu 0.89333333 0.74666667 0.70588235
  Cu3728 Cu 0.49333333 0.54666667 0.70588235
  Cu3729 Cu 0.09333333 0.34666667 0.70588235
  Cu3730 Cu 0.29333333 0.94666667 0.70588235
  Cu3731 Cu 0.71333333 0.20666667 0.70588235
  Cu3732 Cu 0.31333333 0.00666667 0.70588235
  Cu3733 Cu 0.91333333 0.80666667 0.70588235
  Cu3734 Cu 0.51333333 0.60666667 0.70588235
  Cu3735 Cu 0.11333333 0.40666667 0.70588235
  Cu3736 Cu 0.73333333 0.26666667 0.70588235
  Cu3737 Cu 0.33333333 0.06666667 0.70588235
  Cu3738 Cu 0.93333333 0.86666667 0.70588235
  Cu3739 Cu 0.53333333 0.66666667 0.70588235
  Cu3740 Cu 0.13333333 0.46666667 0.70588235
  Cu3741 Cu 0.75333333 0.32666667 0.70588235
  Cu3742 Cu 0.35333333 0.12666667 0.70588235
  Cu3743 Cu 0.95333333 0.92666667 0.70588235
  Cu3744 Cu 0.55333333 0.72666667 0.70588235
  Cu3745 Cu 0.15333333 0.52666667 0.70588235
  Cu3746 Cu 0.77333333 0.38666667 0.70588235
  Cu3747 Cu 0.37333333 0.18666667 0.70588235
  Cu3748 Cu 0.97333333 0.98666667 0.70588235
  Cu3749 Cu 0.57333333 0.78666667 0.70588235
  Cu3750 Cu 0.17333333 0.58666667 0.70588235
  Cu3751 Cu 0.82666667 0.41333333 0.76470588
  Cu3752 Cu 0.42666667 0.21333333 0.76470588
  Cu3753 Cu 0.02666667 0.01333333 0.76470588
  Cu3754 Cu 0.62666667 0.81333333 0.76470588
  Cu3755 Cu 0.22666667 0.61333333 0.76470588
  Cu3756 Cu 0.84666667 0.47333333 0.76470588
  Cu3757 Cu 0.44666667 0.27333333 0.76470588
  Cu3758 Cu 0.04666667 0.07333333 0.76470588
  Cu3759 Cu 0.64666667 0.87333333 0.76470588
  Cu3760 Cu 0.24666667 0.67333333 0.76470588
  Cu3761 Cu 0.86666667 0.53333333 0.76470588
  Cu3762 Cu 0.46666667 0.33333333 0.76470588
  Cu3763 Cu 0.06666667 0.13333333 0.76470588
  Cu3764 Cu 0.66666667 0.93333333 0.76470588
  Cu3765 Cu 0.26666667 0.73333333 0.76470588
  Cu3766 Cu 0.88666667 0.59333333 0.76470588
  Cu3767 Cu 0.48666667 0.39333333 0.76470588
  Cu3768 Cu 0.08666667 0.19333333 0.76470588
  Cu3769 Cu 0.68666667 0.99333333 0.76470588
  Cu3770 Cu 0.28666667 0.79333333 0.76470588
  Cu3771 Cu 0.70666667 0.05333333 0.76470588
  Cu3772 Cu 0.90666667 0.65333333 0.76470588
  Cu3773 Cu 0.50666667 0.45333333 0.76470588
  Cu3774 Cu 0.10666667 0.25333333 0.76470588
  Cu3775 Cu 0.30666667 0.85333333 0.76470588
  Cu3776 Cu 0.88666667 0.39333333 0.76470588
  Cu3777 Cu 0.48666667 0.19333333 0.76470588
  Cu3778 Cu 0.68666667 0.79333333 0.76470588
  Cu3779 Cu 0.28666667 0.59333333 0.76470588
  Cu3780 Cu 0.08666667 0.99333333 0.76470588
  Cu3781 Cu 0.90666667 0.45333333 0.76470588
  Cu3782 Cu 0.50666667 0.25333333 0.76470588
  Cu3783 Cu 0.10666667 0.05333333 0.76470588
  Cu3784 Cu 0.70666667 0.85333333 0.76470588
  Cu3785 Cu 0.30666667 0.65333333 0.76470588
  Cu3786 Cu 0.92666667 0.51333333 0.76470588
  Cu3787 Cu 0.52666667 0.31333333 0.76470588
  Cu3788 Cu 0.12666667 0.11333333 0.76470588
  Cu3789 Cu 0.72666667 0.91333333 0.76470588
  Cu3790 Cu 0.32666667 0.71333333 0.76470588
  Cu3791 Cu 0.94666667 0.57333333 0.76470588
  Cu3792 Cu 0.54666667 0.37333333 0.76470588
  Cu3793 Cu 0.14666667 0.17333333 0.76470588
  Cu3794 Cu 0.74666667 0.97333333 0.76470588
  Cu3795 Cu 0.34666667 0.77333333 0.76470588
  Cu3796 Cu 0.76666667 0.03333333 0.76470588
  Cu3797 Cu 0.96666667 0.63333333 0.76470588
  Cu3798 Cu 0.56666667 0.43333333 0.76470588
  Cu3799 Cu 0.16666667 0.23333333 0.76470588
  Cu3800 Cu 0.36666667 0.83333333 0.76470588
  Cu3801 Cu 0.94666667 0.37333333 0.76470588
  Cu3802 Cu 0.54666667 0.17333333 0.76470588
  Cu3803 Cu 0.74666667 0.77333333 0.76470588
  Cu3804 Cu 0.34666667 0.57333333 0.76470588
  Cu3805 Cu 0.14666667 0.97333333 0.76470588
  Cu3806 Cu 0.96666667 0.43333333 0.76470588
  Cu3807 Cu 0.56666667 0.23333333 0.76470588
  Cu3808 Cu 0.16666667 0.03333333 0.76470588
  Cu3809 Cu 0.76666667 0.83333333 0.76470588
  Cu3810 Cu 0.36666667 0.63333333 0.76470588
  Cu3811 Cu 0.98666667 0.49333333 0.76470588
  Cu3812 Cu 0.58666667 0.29333333 0.76470588
  Cu3813 Cu 0.18666667 0.09333333 0.76470588
  Cu3814 Cu 0.78666667 0.89333333 0.76470588
  Cu3815 Cu 0.38666667 0.69333333 0.76470588
  Cu3816 Cu 0.60666667 0.35333333 0.76470588
  Cu3817 Cu 0.20666667 0.15333333 0.76470588
  Cu3818 Cu 0.80666667 0.95333333 0.76470588
  Cu3819 Cu 0.40666667 0.75333333 0.76470588
  Cu3820 Cu 0.00666667 0.55333333 0.76470588
  Cu3821 Cu 0.82666667 0.01333333 0.76470588
  Cu3822 Cu 0.62666667 0.41333333 0.76470588
  Cu3823 Cu 0.22666667 0.21333333 0.76470588
  Cu3824 Cu 0.42666667 0.81333333 0.76470588
  Cu3825 Cu 0.02666667 0.61333333 0.76470588
  Cu3826 Cu 0.60666667 0.15333333 0.76470588
  Cu3827 Cu 0.80666667 0.75333333 0.76470588
  Cu3828 Cu 0.40666667 0.55333333 0.76470588
  Cu3829 Cu 0.00666667 0.35333333 0.76470588
  Cu3830 Cu 0.20666667 0.95333333 0.76470588
  Cu3831 Cu 0.62666667 0.21333333 0.76470588
  Cu3832 Cu 0.22666667 0.01333333 0.76470588
  Cu3833 Cu 0.82666667 0.81333333 0.76470588
  Cu3834 Cu 0.42666667 0.61333333 0.76470588
  Cu3835 Cu 0.02666667 0.41333333 0.76470588
  Cu3836 Cu 0.64666667 0.27333333 0.76470588
  Cu3837 Cu 0.24666667 0.07333333 0.76470588
  Cu3838 Cu 0.84666667 0.87333333 0.76470588
  Cu3839 Cu 0.44666667 0.67333333 0.76470588
  Cu3840 Cu 0.04666667 0.47333333 0.76470588
  Cu3841 Cu 0.66666667 0.33333333 0.76470588
  Cu3842 Cu 0.26666667 0.13333333 0.76470588
  Cu3843 Cu 0.86666667 0.93333333 0.76470588
  Cu3844 Cu 0.46666667 0.73333333 0.76470588
  Cu3845 Cu 0.06666667 0.53333333 0.76470588
  Cu3846 Cu 0.68666667 0.39333333 0.76470588
  Cu3847 Cu 0.28666667 0.19333333 0.76470588
  Cu3848 Cu 0.88666667 0.99333333 0.76470588
  Cu3849 Cu 0.48666667 0.79333333 0.76470588
  Cu3850 Cu 0.08666667 0.59333333 0.76470588
  Cu3851 Cu 0.66666667 0.13333333 0.76470588
  Cu3852 Cu 0.86666667 0.73333333 0.76470588
  Cu3853 Cu 0.46666667 0.53333333 0.76470588
  Cu3854 Cu 0.06666667 0.33333333 0.76470588
  Cu3855 Cu 0.26666667 0.93333333 0.76470588
  Cu3856 Cu 0.68666667 0.19333333 0.76470588
  Cu3857 Cu 0.88666667 0.79333333 0.76470588
  Cu3858 Cu 0.48666667 0.59333333 0.76470588
  Cu3859 Cu 0.08666667 0.39333333 0.76470588
  Cu3860 Cu 0.28666667 0.99333333 0.76470588
  Cu3861 Cu 0.70666667 0.25333333 0.76470588
  Cu3862 Cu 0.30666667 0.05333333 0.76470588
  Cu3863 Cu 0.90666667 0.85333333 0.76470588
  Cu3864 Cu 0.50666667 0.65333333 0.76470588
  Cu3865 Cu 0.10666667 0.45333333 0.76470588
  Cu3866 Cu 0.72666667 0.31333333 0.76470588
  Cu3867 Cu 0.32666667 0.11333333 0.76470588
  Cu3868 Cu 0.92666667 0.91333333 0.76470588
  Cu3869 Cu 0.52666667 0.71333333 0.76470588
  Cu3870 Cu 0.12666667 0.51333333 0.76470588
  Cu3871 Cu 0.74666667 0.37333333 0.76470588
  Cu3872 Cu 0.34666667 0.17333333 0.76470588
  Cu3873 Cu 0.94666667 0.97333333 0.76470588
  Cu3874 Cu 0.54666667 0.77333333 0.76470588
  Cu3875 Cu 0.14666667 0.57333333 0.76470588
  Cu3876 Cu 0.85333333 0.42666667 0.82352941
  Cu3877 Cu 0.45333333 0.22666667 0.82352941
  Cu3878 Cu 0.05333333 0.02666667 0.82352941
  Cu3879 Cu 0.65333333 0.82666667 0.82352941
  Cu3880 Cu 0.25333333 0.62666667 0.82352941
  Cu3881 Cu 0.87333333 0.48666667 0.82352941
  Cu3882 Cu 0.47333333 0.28666667 0.82352941
  Cu3883 Cu 0.07333333 0.08666667 0.82352941
  Cu3884 Cu 0.67333333 0.88666667 0.82352941
  Cu3885 Cu 0.27333333 0.68666667 0.82352941
  Cu3886 Cu 0.89333333 0.54666667 0.82352941
  Cu3887 Cu 0.49333333 0.34666667 0.82352941
  Cu3888 Cu 0.09333333 0.14666667 0.82352941
  Cu3889 Cu 0.69333333 0.94666667 0.82352941
  Cu3890 Cu 0.29333333 0.74666667 0.82352941
  Cu3891 Cu 0.71333333 0.00666667 0.82352941
  Cu3892 Cu 0.91333333 0.60666667 0.82352941
  Cu3893 Cu 0.51333333 0.40666667 0.82352941
  Cu3894 Cu 0.11333333 0.20666667 0.82352941
  Cu3895 Cu 0.31333333 0.80666667 0.82352941
  Cu3896 Cu 0.73333333 0.06666667 0.82352941
  Cu3897 Cu 0.93333333 0.66666667 0.82352941
  Cu3898 Cu 0.53333333 0.46666667 0.82352941
  Cu3899 Cu 0.13333333 0.26666667 0.82352941
  Cu3900 Cu 0.33333333 0.86666667 0.82352941
  Cu3901 Cu 0.91333333 0.40666667 0.82352941
  Cu3902 Cu 0.51333333 0.20666667 0.82352941
  Cu3903 Cu 0.11333333 0.00666667 0.82352941
  Cu3904 Cu 0.71333333 0.80666667 0.82352941
  Cu3905 Cu 0.31333333 0.60666667 0.82352941
  Cu3906 Cu 0.93333333 0.46666667 0.82352941
  Cu3907 Cu 0.53333333 0.26666667 0.82352941
  Cu3908 Cu 0.13333333 0.06666667 0.82352941
  Cu3909 Cu 0.73333333 0.86666667 0.82352941
  Cu3910 Cu 0.33333333 0.66666667 0.82352941
  Cu3911 Cu 0.95333333 0.52666667 0.82352941
  Cu3912 Cu 0.55333333 0.32666667 0.82352941
  Cu3913 Cu 0.15333333 0.12666667 0.82352941
  Cu3914 Cu 0.75333333 0.92666667 0.82352941
  Cu3915 Cu 0.35333333 0.72666667 0.82352941
  Cu3916 Cu 0.97333333 0.58666667 0.82352941
  Cu3917 Cu 0.57333333 0.38666667 0.82352941
  Cu3918 Cu 0.17333333 0.18666667 0.82352941
  Cu3919 Cu 0.77333333 0.98666667 0.82352941
  Cu3920 Cu 0.37333333 0.78666667 0.82352941
  Cu3921 Cu 0.79333333 0.04666667 0.82352941
  Cu3922 Cu 0.99333333 0.64666667 0.82352941
  Cu3923 Cu 0.59333333 0.44666667 0.82352941
  Cu3924 Cu 0.19333333 0.24666667 0.82352941
  Cu3925 Cu 0.39333333 0.84666667 0.82352941
  Cu3926 Cu 0.97333333 0.38666667 0.82352941
  Cu3927 Cu 0.57333333 0.18666667 0.82352941
  Cu3928 Cu 0.77333333 0.78666667 0.82352941
  Cu3929 Cu 0.37333333 0.58666667 0.82352941
  Cu3930 Cu 0.17333333 0.98666667 0.82352941
  Cu3931 Cu 0.99333333 0.44666667 0.82352941
  Cu3932 Cu 0.59333333 0.24666667 0.82352941
  Cu3933 Cu 0.19333333 0.04666667 0.82352941
  Cu3934 Cu 0.79333333 0.84666667 0.82352941
  Cu3935 Cu 0.39333333 0.64666667 0.82352941
  Cu3936 Cu 0.61333333 0.30666667 0.82352941
  Cu3937 Cu 0.21333333 0.10666667 0.82352941
  Cu3938 Cu 0.81333333 0.90666667 0.82352941
  Cu3939 Cu 0.41333333 0.70666667 0.82352941
  Cu3940 Cu 0.01333333 0.50666667 0.82352941
  Cu3941 Cu 0.63333333 0.36666667 0.82352941
  Cu3942 Cu 0.23333333 0.16666667 0.82352941
  Cu3943 Cu 0.83333333 0.96666667 0.82352941
  Cu3944 Cu 0.43333333 0.76666667 0.82352941
  Cu3945 Cu 0.03333333 0.56666667 0.82352941
  Cu3946 Cu 0.85333333 0.02666667 0.82352941
  Cu3947 Cu 0.65333333 0.42666667 0.82352941
  Cu3948 Cu 0.25333333 0.22666667 0.82352941
  Cu3949 Cu 0.45333333 0.82666667 0.82352941
  Cu3950 Cu 0.05333333 0.62666667 0.82352941
  Cu3951 Cu 0.63333333 0.16666667 0.82352941
  Cu3952 Cu 0.83333333 0.76666667 0.82352941
  Cu3953 Cu 0.43333333 0.56666667 0.82352941
  Cu3954 Cu 0.03333333 0.36666667 0.82352941
  Cu3955 Cu 0.23333333 0.96666667 0.82352941
  Cu3956 Cu 0.65333333 0.22666667 0.82352941
  Cu3957 Cu 0.25333333 0.02666667 0.82352941
  Cu3958 Cu 0.85333333 0.82666667 0.82352941
  Cu3959 Cu 0.45333333 0.62666667 0.82352941
  Cu3960 Cu 0.05333333 0.42666667 0.82352941
  Cu3961 Cu 0.67333333 0.28666667 0.82352941
  Cu3962 Cu 0.27333333 0.08666667 0.82352941
  Cu3963 Cu 0.87333333 0.88666667 0.82352941
  Cu3964 Cu 0.47333333 0.68666667 0.82352941
  Cu3965 Cu 0.07333333 0.48666667 0.82352941
  Cu3966 Cu 0.69333333 0.34666667 0.82352941
  Cu3967 Cu 0.29333333 0.14666667 0.82352941
  Cu3968 Cu 0.89333333 0.94666667 0.82352941
  Cu3969 Cu 0.49333333 0.74666667 0.82352941
  Cu3970 Cu 0.09333333 0.54666667 0.82352941
  Cu3971 Cu 0.91333333 0.00666667 0.82352941
  Cu3972 Cu 0.71333333 0.40666667 0.82352941
  Cu3973 Cu 0.31333333 0.20666667 0.82352941
  Cu3974 Cu 0.51333333 0.80666667 0.82352941
  Cu3975 Cu 0.11333333 0.60666667 0.82352941
  Cu3976 Cu 0.69333333 0.14666667 0.82352941
  Cu3977 Cu 0.89333333 0.74666667 0.82352941
  Cu3978 Cu 0.49333333 0.54666667 0.82352941
  Cu3979 Cu 0.09333333 0.34666667 0.82352941
  Cu3980 Cu 0.29333333 0.94666667 0.82352941
  Cu3981 Cu 0.71333333 0.20666667 0.82352941
  Cu3982 Cu 0.31333333 0.00666667 0.82352941
  Cu3983 Cu 0.91333333 0.80666667 0.82352941
  Cu3984 Cu 0.51333333 0.60666667 0.82352941
  Cu3985 Cu 0.11333333 0.40666667 0.82352941
  Cu3986 Cu 0.73333333 0.26666667 0.82352941
  Cu3987 Cu 0.33333333 0.06666667 0.82352941
  Cu3988 Cu 0.93333333 0.86666667 0.82352941
  Cu3989 Cu 0.53333333 0.66666667 0.82352941
  Cu3990 Cu 0.13333333 0.46666667 0.82352941
  Cu3991 Cu 0.75333333 0.32666667 0.82352941
  Cu3992 Cu 0.35333333 0.12666667 0.82352941
  Cu3993 Cu 0.95333333 0.92666667 0.82352941
  Cu3994 Cu 0.55333333 0.72666667 0.82352941
  Cu3995 Cu 0.15333333 0.52666667 0.82352941
  Cu3996 Cu 0.77333333 0.38666667 0.82352941
  Cu3997 Cu 0.37333333 0.18666667 0.82352941
  Cu3998 Cu 0.97333333 0.98666667 0.82352941
  Cu3999 Cu 0.57333333 0.78666667 0.82352941
  Cu4000 Cu 0.17333333 0.58666667 0.82352941
  Cu4001 Cu 0.80000000 0.40000000 0.88235294
  Cu4002 Cu 0.40000000 0.20000000 0.88235294
  Cu4003 Cu 0.00000000 0.00000000 0.88235294
  Cu4004 Cu 0.60000000 0.80000000 0.88235294
  Cu4005 Cu 0.20000000 0.60000000 0.88235294
  Cu4006 Cu 0.82000000 0.46000000 0.88235294
  Cu4007 Cu 0.42000000 0.26000000 0.88235294
  Cu4008 Cu 0.02000000 0.06000000 0.88235294
  Cu4009 Cu 0.62000000 0.86000000 0.88235294
  Cu4010 Cu 0.22000000 0.66000000 0.88235294
  Cu4011 Cu 0.84000000 0.52000000 0.88235294
  Cu4012 Cu 0.44000000 0.32000000 0.88235294
  Cu4013 Cu 0.04000000 0.12000000 0.88235294
  Cu4014 Cu 0.64000000 0.92000000 0.88235294
  Cu4015 Cu 0.24000000 0.72000000 0.88235294
  Cu4016 Cu 0.86000000 0.58000000 0.88235294
  Cu4017 Cu 0.46000000 0.38000000 0.88235294
  Cu4018 Cu 0.06000000 0.18000000 0.88235294
  Cu4019 Cu 0.66000000 0.98000000 0.88235294
  Cu4020 Cu 0.26000000 0.78000000 0.88235294
  Cu4021 Cu 0.68000000 0.04000000 0.88235294
  Cu4022 Cu 0.88000000 0.64000000 0.88235294
  Cu4023 Cu 0.48000000 0.44000000 0.88235294
  Cu4024 Cu 0.08000000 0.24000000 0.88235294
  Cu4025 Cu 0.28000000 0.84000000 0.88235294
  Cu4026 Cu 0.86000000 0.38000000 0.88235294
  Cu4027 Cu 0.46000000 0.18000000 0.88235294
  Cu4028 Cu 0.66000000 0.78000000 0.88235294
  Cu4029 Cu 0.26000000 0.58000000 0.88235294
  Cu4030 Cu 0.06000000 0.98000000 0.88235294
  Cu4031 Cu 0.88000000 0.44000000 0.88235294
  Cu4032 Cu 0.48000000 0.24000000 0.88235294
  Cu4033 Cu 0.08000000 0.04000000 0.88235294
  Cu4034 Cu 0.68000000 0.84000000 0.88235294
  Cu4035 Cu 0.28000000 0.64000000 0.88235294
  Cu4036 Cu 0.90000000 0.50000000 0.88235294
  Cu4037 Cu 0.50000000 0.30000000 0.88235294
  Cu4038 Cu 0.10000000 0.10000000 0.88235294
  Cu4039 Cu 0.70000000 0.90000000 0.88235294
  Cu4040 Cu 0.30000000 0.70000000 0.88235294
  Cu4041 Cu 0.92000000 0.56000000 0.88235294
  Cu4042 Cu 0.52000000 0.36000000 0.88235294
  Cu4043 Cu 0.12000000 0.16000000 0.88235294
  Cu4044 Cu 0.72000000 0.96000000 0.88235294
  Cu4045 Cu 0.32000000 0.76000000 0.88235294
  Cu4046 Cu 0.74000000 0.02000000 0.88235294
  Cu4047 Cu 0.94000000 0.62000000 0.88235294
  Cu4048 Cu 0.54000000 0.42000000 0.88235294
  Cu4049 Cu 0.14000000 0.22000000 0.88235294
  Cu4050 Cu 0.34000000 0.82000000 0.88235294
  Cu4051 Cu 0.92000000 0.36000000 0.88235294
  Cu4052 Cu 0.52000000 0.16000000 0.88235294
  Cu4053 Cu 0.72000000 0.76000000 0.88235294
  Cu4054 Cu 0.32000000 0.56000000 0.88235294
  Cu4055 Cu 0.12000000 0.96000000 0.88235294
  Cu4056 Cu 0.94000000 0.42000000 0.88235294
  Cu4057 Cu 0.54000000 0.22000000 0.88235294
  Cu4058 Cu 0.14000000 0.02000000 0.88235294
  Cu4059 Cu 0.74000000 0.82000000 0.88235294
  Cu4060 Cu 0.34000000 0.62000000 0.88235294
  Cu4061 Cu 0.96000000 0.48000000 0.88235294
  Cu4062 Cu 0.56000000 0.28000000 0.88235294
  Cu4063 Cu 0.16000000 0.08000000 0.88235294
  Cu4064 Cu 0.76000000 0.88000000 0.88235294
  Cu4065 Cu 0.36000000 0.68000000 0.88235294
  Cu4066 Cu 0.98000000 0.54000000 0.88235294
  Cu4067 Cu 0.58000000 0.34000000 0.88235294
  Cu4068 Cu 0.18000000 0.14000000 0.88235294
  Cu4069 Cu 0.78000000 0.94000000 0.88235294
  Cu4070 Cu 0.38000000 0.74000000 0.88235294
  Cu4071 Cu 0.80000000 0.00000000 0.88235294
  Cu4072 Cu 0.60000000 0.40000000 0.88235294
  Cu4073 Cu 0.20000000 0.20000000 0.88235294
  Cu4074 Cu 0.40000000 0.80000000 0.88235294
  Cu4075 Cu 0.00000000 0.60000000 0.88235294
  Cu4076 Cu 0.98000000 0.34000000 0.88235294
  Cu4077 Cu 0.58000000 0.14000000 0.88235294
  Cu4078 Cu 0.78000000 0.74000000 0.88235294
  Cu4079 Cu 0.38000000 0.54000000 0.88235294
  Cu4080 Cu 0.18000000 0.94000000 0.88235294
  Cu4081 Cu 0.60000000 0.20000000 0.88235294
  Cu4082 Cu 0.20000000 0.00000000 0.88235294
  Cu4083 Cu 0.80000000 0.80000000 0.88235294
  Cu4084 Cu 0.40000000 0.60000000 0.88235294
  Cu4085 Cu 0.00000000 0.40000000 0.88235294
  Cu4086 Cu 0.62000000 0.26000000 0.88235294
  Cu4087 Cu 0.22000000 0.06000000 0.88235294
  Cu4088 Cu 0.82000000 0.86000000 0.88235294
  Cu4089 Cu 0.42000000 0.66000000 0.88235294
  Cu4090 Cu 0.02000000 0.46000000 0.88235294
  Cu4091 Cu 0.64000000 0.32000000 0.88235294
  Cu4092 Cu 0.24000000 0.12000000 0.88235294
  Cu4093 Cu 0.84000000 0.92000000 0.88235294
  Cu4094 Cu 0.44000000 0.72000000 0.88235294
  Cu4095 Cu 0.04000000 0.52000000 0.88235294
  Cu4096 Cu 0.66000000 0.38000000 0.88235294
  Cu4097 Cu 0.26000000 0.18000000 0.88235294
  Cu4098 Cu 0.86000000 0.98000000 0.88235294
  Cu4099 Cu 0.46000000 0.78000000 0.88235294
  Cu4100 Cu 0.06000000 0.58000000 0.88235294
  Cu4101 Cu 0.64000000 0.12000000 0.88235294
  Cu4102 Cu 0.84000000 0.72000000 0.88235294
  Cu4103 Cu 0.44000000 0.52000000 0.88235294
  Cu4104 Cu 0.04000000 0.32000000 0.88235294
  Cu4105 Cu 0.24000000 0.92000000 0.88235294
  Cu4106 Cu 0.66000000 0.18000000 0.88235294
  Cu4107 Cu 0.86000000 0.78000000 0.88235294
  Cu4108 Cu 0.46000000 0.58000000 0.88235294
  Cu4109 Cu 0.06000000 0.38000000 0.88235294
  Cu4110 Cu 0.26000000 0.98000000 0.88235294
  Cu4111 Cu 0.68000000 0.24000000 0.88235294
  Cu4112 Cu 0.28000000 0.04000000 0.88235294
  Cu4113 Cu 0.88000000 0.84000000 0.88235294
  Cu4114 Cu 0.48000000 0.64000000 0.88235294
  Cu4115 Cu 0.08000000 0.44000000 0.88235294
  Cu4116 Cu 0.70000000 0.30000000 0.88235294
  Cu4117 Cu 0.30000000 0.10000000 0.88235294
  Cu4118 Cu 0.90000000 0.90000000 0.88235294
  Cu4119 Cu 0.50000000 0.70000000 0.88235294
  Cu4120 Cu 0.10000000 0.50000000 0.88235294
  Cu4121 Cu 0.72000000 0.36000000 0.88235294
  Cu4122 Cu 0.32000000 0.16000000 0.88235294
  Cu4123 Cu 0.92000000 0.96000000 0.88235294
  Cu4124 Cu 0.52000000 0.76000000 0.88235294
  Cu4125 Cu 0.12000000 0.56000000 0.88235294
  Cu4126 Cu 0.82666667 0.41333333 0.94117647
  Cu4127 Cu 0.42666667 0.21333333 0.94117647
  Cu4128 Cu 0.02666667 0.01333333 0.94117647
  Cu4129 Cu 0.62666667 0.81333333 0.94117647
  Cu4130 Cu 0.22666667 0.61333333 0.94117647
  Cu4131 Cu 0.84666667 0.47333333 0.94117647
  Cu4132 Cu 0.44666667 0.27333333 0.94117647
  Cu4133 Cu 0.04666667 0.07333333 0.94117647
  Cu4134 Cu 0.64666667 0.87333333 0.94117647
  Cu4135 Cu 0.24666667 0.67333333 0.94117647
  Cu4136 Cu 0.86666667 0.53333333 0.94117647
  Cu4137 Cu 0.46666667 0.33333333 0.94117647
  Cu4138 Cu 0.06666667 0.13333333 0.94117647
  Cu4139 Cu 0.66666667 0.93333333 0.94117647
  Cu4140 Cu 0.26666667 0.73333333 0.94117647
  Cu4141 Cu 0.88666667 0.59333333 0.94117647
  Cu4142 Cu 0.48666667 0.39333333 0.94117647
  Cu4143 Cu 0.08666667 0.19333333 0.94117647
  Cu4144 Cu 0.68666667 0.99333333 0.94117647
  Cu4145 Cu 0.28666667 0.79333333 0.94117647
  Cu4146 Cu 0.70666667 0.05333333 0.94117647
  Cu4147 Cu 0.90666667 0.65333333 0.94117647
  Cu4148 Cu 0.50666667 0.45333333 0.94117647
  Cu4149 Cu 0.10666667 0.25333333 0.94117647
  Cu4150 Cu 0.30666667 0.85333333 0.94117647
  Cu4151 Cu 0.88666667 0.39333333 0.94117647
  Cu4152 Cu 0.48666667 0.19333333 0.94117647
  Cu4153 Cu 0.68666667 0.79333333 0.94117647
  Cu4154 Cu 0.28666667 0.59333333 0.94117647
  Cu4155 Cu 0.08666667 0.99333333 0.94117647
  Cu4156 Cu 0.90666667 0.45333333 0.94117647
  Cu4157 Cu 0.50666667 0.25333333 0.94117647
  Cu4158 Cu 0.10666667 0.05333333 0.94117647
  Cu4159 Cu 0.70666667 0.85333333 0.94117647
  Cu4160 Cu 0.30666667 0.65333333 0.94117647
  Cu4161 Cu 0.92666667 0.51333333 0.94117647
  Cu4162 Cu 0.52666667 0.31333333 0.94117647
  Cu4163 Cu 0.12666667 0.11333333 0.94117647
  Cu4164 Cu 0.72666667 0.91333333 0.94117647
  Cu4165 Cu 0.32666667 0.71333333 0.94117647
  Cu4166 Cu 0.94666667 0.57333333 0.94117647
  Cu4167 Cu 0.54666667 0.37333333 0.94117647
  Cu4168 Cu 0.14666667 0.17333333 0.94117647
  Cu4169 Cu 0.74666667 0.97333333 0.94117647
  Cu4170 Cu 0.34666667 0.77333333 0.94117647
  Cu4171 Cu 0.76666667 0.03333333 0.94117647
  Cu4172 Cu 0.96666667 0.63333333 0.94117647
  Cu4173 Cu 0.56666667 0.43333333 0.94117647
  Cu4174 Cu 0.16666667 0.23333333 0.94117647
  Cu4175 Cu 0.36666667 0.83333333 0.94117647
  Cu4176 Cu 0.94666667 0.37333333 0.94117647
  Cu4177 Cu 0.54666667 0.17333333 0.94117647
  Cu4178 Cu 0.74666667 0.77333333 0.94117647
  Cu4179 Cu 0.34666667 0.57333333 0.94117647
  Cu4180 Cu 0.14666667 0.97333333 0.94117647
  Cu4181 Cu 0.96666667 0.43333333 0.94117647
  Cu4182 Cu 0.56666667 0.23333333 0.94117647
  Cu4183 Cu 0.16666667 0.03333333 0.94117647
  Cu4184 Cu 0.76666667 0.83333333 0.94117647
  Cu4185 Cu 0.36666667 0.63333333 0.94117647
  Cu4186 Cu 0.98666667 0.49333333 0.94117647
  Cu4187 Cu 0.58666667 0.29333333 0.94117647
  Cu4188 Cu 0.18666667 0.09333333 0.94117647
  Cu4189 Cu 0.78666667 0.89333333 0.94117647
  Cu4190 Cu 0.38666667 0.69333333 0.94117647
  Cu4191 Cu 0.60666667 0.35333333 0.94117647
  Cu4192 Cu 0.20666667 0.15333333 0.94117647
  Cu4193 Cu 0.80666667 0.95333333 0.94117647
  Cu4194 Cu 0.40666667 0.75333333 0.94117647
  Cu4195 Cu 0.00666667 0.55333333 0.94117647
  Cu4196 Cu 0.82666667 0.01333333 0.94117647
  Cu4197 Cu 0.62666667 0.41333333 0.94117647
  Cu4198 Cu 0.22666667 0.21333333 0.94117647
  Cu4199 Cu 0.42666667 0.81333333 0.94117647
  Cu4200 Cu 0.02666667 0.61333333 0.94117647
  Cu4201 Cu 0.60666667 0.15333333 0.94117647
  Cu4202 Cu 0.80666667 0.75333333 0.94117647
  Cu4203 Cu 0.40666667 0.55333333 0.94117647
  Cu4204 Cu 0.00666667 0.35333333 0.94117647
  Cu4205 Cu 0.20666667 0.95333333 0.94117647
  Cu4206 Cu 0.62666667 0.21333333 0.94117647
  Cu4207 Cu 0.22666667 0.01333333 0.94117647
  Cu4208 Cu 0.82666667 0.81333333 0.94117647
  Cu4209 Cu 0.42666667 0.61333333 0.94117647
  Cu4210 Cu 0.02666667 0.41333333 0.94117647
  Cu4211 Cu 0.64666667 0.27333333 0.94117647
  Cu4212 Cu 0.24666667 0.07333333 0.94117647
  Cu4213 Cu 0.84666667 0.87333333 0.94117647
  Cu4214 Cu 0.44666667 0.67333333 0.94117647
  Cu4215 Cu 0.04666667 0.47333333 0.94117647
  Cu4216 Cu 0.66666667 0.33333333 0.94117647
  Cu4217 Cu 0.26666667 0.13333333 0.94117647
  Cu4218 Cu 0.86666667 0.93333333 0.94117647
  Cu4219 Cu 0.46666667 0.73333333 0.94117647
  Cu4220 Cu 0.06666667 0.53333333 0.94117647
  Cu4221 Cu 0.68666667 0.39333333 0.94117647
  Cu4222 Cu 0.28666667 0.19333333 0.94117647
  Cu4223 Cu 0.88666667 0.99333333 0.94117647
  Cu4224 Cu 0.48666667 0.79333333 0.94117647
  Cu4225 Cu 0.08666667 0.59333333 0.94117647
  Cu4226 Cu 0.66666667 0.13333333 0.94117647
  Cu4227 Cu 0.86666667 0.73333333 0.94117647
  Cu4228 Cu 0.46666667 0.53333333 0.94117647
  Cu4229 Cu 0.06666667 0.33333333 0.94117647
  Cu4230 Cu 0.26666667 0.93333333 0.94117647
  Cu4231 Cu 0.68666667 0.19333333 0.94117647
  Cu4232 Cu 0.88666667 0.79333333 0.94117647
  Cu4233 Cu 0.48666667 0.59333333 0.94117647
  Cu4234 Cu 0.08666667 0.39333333 0.94117647
  Cu4235 Cu 0.28666667 0.99333333 0.94117647
  Cu4236 Cu 0.70666667 0.25333333 0.94117647
  Cu4237 Cu 0.30666667 0.05333333 0.94117647
  Cu4238 Cu 0.90666667 0.85333333 0.94117647
  Cu4239 Cu 0.50666667 0.65333333 0.94117647
  Cu4240 Cu 0.10666667 0.45333333 0.94117647
  Cu4241 Cu 0.72666667 0.31333333 0.94117647
  Cu4242 Cu 0.32666667 0.11333333 0.94117647
  Cu4243 Cu 0.92666667 0.91333333 0.94117647
  Cu4244 Cu 0.52666667 0.71333333 0.94117647
  Cu4245 Cu 0.12666667 0.51333333 0.94117647
  Cu4246 Cu 0.74666667 0.37333333 0.94117647
  Cu4247 Cu 0.34666667 0.17333333 0.94117647
  Cu4248 Cu 0.94666667 0.97333333 0.94117647
  Cu4249 Cu 0.54666667 0.77333333 0.94117647
  Cu4250 Cu 0.14666667 0.57333333 0.94117647
